REMARK  Name = ABC
REMARK  9 active torsions:
REMARK  status: ('A' for Active; 'I' for Inactive)
REMARK    1  A    between atoms: O_5  and  C_37
REMARK    2  A    between atoms: N_8  and  C_21
REMARK    3  A    between atoms: C_12  and  C_17
REMARK    4  A    between atoms: C_19  and  C_26
REMARK    5  A    between atoms: C_24  and  C_25
REMARK    6  A    between atoms: C_25  and  C_30
REMARK    7  A    between atoms: C_25  and  C_31
REMARK    8  A    between atoms: C_28  and  C_34
REMARK    9  A    between atoms: C_29  and  C_33
REMARK                            x       y       z     vdW  Elec       q    Type
REMARK                         _______ _______ _______ _____ _____    ______ ____
ROOT
ATOM      1  F   UNL     1       0.325  -3.492   1.124  0.00  0.00    -0.203 F 
ATOM      2  O   UNL     1       7.512  -0.896  -1.664  0.00  0.00    -0.271 OA
ATOM      3  O   UNL     1      -0.867   3.244  -2.099  0.00  0.00    -0.244 OA
ATOM      4  N   UNL     1       2.752   0.517  -0.993  0.00  0.00    -0.309 N 
ATOM      5  N   UNL     1       5.513  -0.047  -0.805  0.00  0.00    -0.295 N 
ATOM      6  N   UNL     1      -1.381   1.223  -1.164  0.00  0.00    -0.242 N 
ATOM      7  N   UNL     1       0.853   1.891  -1.544  0.00  0.00    -0.177 NA
ATOM      8  N   UNL     1      -1.838  -0.866  -0.143  0.00  0.00    -0.225 NA
ATOM      9  C   UNL     1       3.587   1.383  -0.146  0.00  0.00    +0.089 C 
ATOM     10  C   UNL     1       5.065   1.337  -0.588  0.00  0.00    +0.130 C 
ATOM     11  C   UNL     1       3.357  -0.346  -2.013  0.00  0.00    +0.126 C 
ATOM     12  C   UNL     1       4.624  -1.014  -1.471  0.00  0.00    +0.127 C 
ATOM     13  C   UNL     1       1.334   0.732  -1.027  0.00  0.00    +0.138 A 
ATOM     14  C   UNL     1       3.430   0.971   1.321  0.00  0.00    +0.029 C 
ATOM     15  C   UNL     1       0.436  -0.227  -0.534  0.00  0.00    +0.061 A 
ATOM     16  C   UNL     1       6.914  -0.361  -0.692  0.00  0.00    +0.239 C 
ATOM     17  C   UNL     1      -0.945   0.044  -0.622  0.00  0.00    +0.153 A 
ATOM     18  C   UNL     1      -0.477   2.147  -1.614  0.00  0.00    +0.356 A 
ATOM     19  C   UNL     1       0.857  -1.428   0.062  0.00  0.00    +0.055 A 
ATOM     20  C   UNL     1      -0.087  -2.332   0.552  0.00  0.00    +0.150 A 
ATOM     21  C   UNL     1      -1.452  -2.029   0.444  0.00  0.00    +0.115 A 
ENDROOT
BRANCH  21  23
ATOM     22  F   UNL     1      -3.253  -3.310  -1.299  0.00  0.00    -0.205 F 
ATOM     23  C   UNL     1      -2.481  -2.955   0.946  0.00  0.00    +0.080 A 
ATOM     24  C   UNL     1      -2.619  -3.229   2.328  0.00  0.00    +0.129 A 
ATOM     25  C   UNL     1      -3.358  -3.565   0.031  0.00  0.00    +0.136 A 
ATOM     26  C   UNL     1      -3.600  -4.130   2.760  0.00  0.00    +0.046 A 
ATOM     27  C   UNL     1      -4.334  -4.459   0.479  0.00  0.00    +0.039 A 
ATOM     28  C   UNL     1      -4.452  -4.745   1.841  0.00  0.00    +0.006 A 
BRANCH  24  29
ATOM     29  O   UNL     1      -1.817  -2.607   3.289  0.00  0.00    -0.506 OA
ATOM     30  H   UNL     1      -1.134  -1.897   3.059  0.00  0.00    +0.292 HD
ENDBRANCH  24  29
ENDBRANCH  21  23
BRANCH   6  32
ATOM     31  N   UNL     1      -4.821   2.268  -0.208  0.00  0.00    -0.258 NA
ATOM     32  C   UNL     1      -2.794   1.503  -1.233  0.00  0.00    +0.077 A 
ATOM     33  C   UNL     1      -3.482   2.034  -0.115  0.00  0.00    +0.068 A 
ATOM     34  C   UNL     1      -3.514   1.222  -2.413  0.00  0.00    -0.023 A 
ATOM     35  C   UNL     1      -4.888   1.492  -2.460  0.00  0.00    +0.025 A 
ATOM     36  C   UNL     1      -2.822   0.650  -3.619  0.00  0.00    +0.046 C 
ATOM     37  C   UNL     1      -5.527   2.015  -1.339  0.00  0.00    +0.111 A 
BRANCH  33  38
ATOM     38  C   UNL     1      -2.780   2.338   1.195  0.00  0.00    +0.034 C 
ATOM     39  C   UNL     1      -2.942   3.818   1.557  0.00  0.00    +0.014 C 
ATOM     40  C   UNL     1      -3.324   1.439   2.311  0.00  0.00    +0.014 C 
ENDBRANCH  33  38
ENDBRANCH   6  32
BRANCH  16  41
ATOM     41  C   UNL     1       7.689  -0.073   0.529  0.00  0.00    +0.060 C 
ATOM     42  C   UNL     1       7.126   0.028   1.730  0.00  0.00    +0.013 C 
ENDBRANCH  16  41
TORSDOF 5
