ABC
     RDKit          3D

 71 75  0  0  1  0  0  0  0  0999 V2000
    0.3247   -3.4922    1.1241 F   0  0  0  0  0  0  0  0  0  0  0  0
   -3.2527   -3.3099   -1.2992 F   0  0  0  0  0  0  0  0  0  0  0  0
    7.5118   -0.8965   -1.6642 O   0  0  0  0  0  0  0  0  0  0  0  0
   -0.8668    3.2439   -2.0987 O   0  0  0  0  0  0  0  0  0  0  0  0
   -1.8174   -2.6075    3.2887 O   0  0  0  0  0  0  0  0  0  0  0  0
    2.7520    0.5166   -0.9928 N   0  0  0  0  0  0  0  0  0  0  0  0
    5.5127   -0.0471   -0.8053 N   0  0  0  0  0  0  0  0  0  0  0  0
   -1.3812    1.2233   -1.1637 N   0  0  0  0  0  0  0  0  0  0  0  0
    0.8533    1.8914   -1.5438 N   0  0  0  0  0  0  0  0  0  0  0  0
   -1.8384   -0.8658   -0.1430 N   0  0  0  0  0  0  0  0  0  0  0  0
   -4.8209    2.2681   -0.2082 N   0  0  0  0  0  0  0  0  0  0  0  0
    3.5869    1.3834   -0.1464 C   0  0  2  0  0  0  0  0  0  0  0  0
    5.0649    1.3368   -0.5875 C   0  0  0  0  0  0  0  0  0  0  0  0
    3.3567   -0.3458   -2.0130 C   0  0  0  0  0  0  0  0  0  0  0  0
    4.6238   -1.0140   -1.4709 C   0  0  0  0  0  0  0  0  0  0  0  0
    1.3338    0.7321   -1.0273 C   0  0  0  0  0  0  0  0  0  0  0  0
    3.4305    0.9709    1.3213 C   0  0  0  0  0  0  0  0  0  0  0  0
    0.4356   -0.2273   -0.5340 C   0  0  0  0  0  0  0  0  0  0  0  0
    6.9142   -0.3613   -0.6923 C   0  0  0  0  0  0  0  0  0  0  0  0
   -0.9447    0.0443   -0.6220 C   0  0  0  0  0  0  0  0  0  0  0  0
   -2.7939    1.5033   -1.2326 C   0  0  0  0  0  0  0  0  0  0  0  0
   -0.4774    2.1467   -1.6143 C   0  0  0  0  0  0  0  0  0  0  0  0
    0.8566   -1.4277    0.0616 C   0  0  0  0  0  0  0  0  0  0  0  0
   -3.4818    2.0339   -0.1152 C   0  0  0  0  0  0  0  0  0  0  0  0
   -2.7801    2.3378    1.1948 C   0  0  0  0  0  0  0  0  0  0  0  0
    7.6885   -0.0733    0.5291 C   0  0  0  0  0  0  0  0  0  0  0  0
   -0.0870   -2.3315    0.5525 C   0  0  0  0  0  0  0  0  0  0  0  0
   -3.5144    1.2221   -2.4127 C   0  0  0  0  0  0  0  0  0  0  0  0
   -1.4518   -2.0287    0.4436 C   0  0  0  0  0  0  0  0  0  0  0  0
   -2.9423    3.8176    1.5568 C   0  0  0  0  0  0  0  0  0  0  0  0
   -3.3241    1.4393    2.3111 C   0  0  0  0  0  0  0  0  0  0  0  0
   -4.8884    1.4915   -2.4602 C   0  0  0  0  0  0  0  0  0  0  0  0
   -2.4814   -2.9554    0.9459 C   0  0  0  0  0  0  0  0  0  0  0  0
   -2.8219    0.6497   -3.6194 C   0  0  0  0  0  0  0  0  0  0  0  0
   -5.5274    2.0148   -1.3386 C   0  0  0  0  0  0  0  0  0  0  0  0
    7.1261    0.0277    1.7303 C   0  0  0  0  0  0  0  0  0  0  0  0
   -2.6193   -3.2286    2.3277 C   0  0  0  0  0  0  0  0  0  0  0  0
   -3.3582   -3.5648    0.0306 C   0  0  0  0  0  0  0  0  0  0  0  0
   -3.5998   -4.1297    2.7604 C   0  0  0  0  0  0  0  0  0  0  0  0
   -4.3340   -4.4591    0.4790 C   0  0  0  0  0  0  0  0  0  0  0  0
   -4.4516   -4.7446    1.8405 C   0  0  0  0  0  0  0  0  0  0  0  0
   -1.1340   -1.8973    3.0589 H   0  0  0  0  0  0  0  0  0  0  0  0
    3.2425    2.4370   -0.2438 H   0  0  0  0  0  0  0  0  0  0  0  0
    5.7003    1.8520    0.1629 H   0  0  0  0  0  0  0  0  0  0  0  0
    5.1743    1.8978   -1.5416 H   0  0  0  0  0  0  0  0  0  0  0  0
    2.6415   -1.1350   -2.3339 H   0  0  0  0  0  0  0  0  0  0  0  0
    3.6119    0.2695   -2.9030 H   0  0  0  0  0  0  0  0  0  0  0  0
    4.3446   -1.8056   -0.7427 H   0  0  0  0  0  0  0  0  0  0  0  0
    5.1451   -1.4996   -2.3250 H   0  0  0  0  0  0  0  0  0  0  0  0
    2.3783    1.1143    1.6443 H   0  0  0  0  0  0  0  0  0  0  0  0
    4.0778    1.5966    1.9720 H   0  0  0  0  0  0  0  0  0  0  0  0
    3.6967   -0.0984    1.4563 H   0  0  0  0  0  0  0  0  0  0  0  0
    1.9074   -1.6659    0.1599 H   0  0  0  0  0  0  0  0  0  0  0  0
   -1.6897    2.1446    1.1183 H   0  0  0  0  0  0  0  0  0  0  0  0
    8.7694   -0.0186    0.4562 H   0  0  0  0  0  0  0  0  0  0  0  0
   -4.0126    4.0755    1.7098 H   0  0  0  0  0  0  0  0  0  0  0  0
   -2.5313    4.4530    0.7423 H   0  0  0  0  0  0  0  0  0  0  0  0
   -2.3833    4.0455    2.4893 H   0  0  0  0  0  0  0  0  0  0  0  0
   -2.7707    1.6273    3.2561 H   0  0  0  0  0  0  0  0  0  0  0  0
   -3.1921    0.3704    2.0405 H   0  0  0  0  0  0  0  0  0  0  0  0
   -4.4044    1.6338    2.4853 H   0  0  0  0  0  0  0  0  0  0  0  0
   -5.4637    1.2937   -3.3564 H   0  0  0  0  0  0  0  0  0  0  0  0
   -2.2421   -0.2536   -3.3327 H   0  0  0  0  0  0  0  0  0  0  0  0
   -2.1313    1.4070   -4.0460 H   0  0  0  0  0  0  0  0  0  0  0  0
   -3.5484    0.3541   -4.4062 H   0  0  0  0  0  0  0  0  0  0  0  0
   -6.5895    2.2203   -1.3663 H   0  0  0  0  0  0  0  0  0  0  0  0
    7.7428    0.2040    2.6024 H   0  0  0  0  0  0  0  0  0  0  0  0
    6.0606   -0.0871    1.8671 H   0  0  0  0  0  0  0  0  0  0  0  0
   -3.7083   -4.3456    3.8166 H   0  0  0  0  0  0  0  0  0  0  0  0
   -4.9982   -4.9353   -0.2314 H   0  0  0  0  0  0  0  0  0  0  0  0
   -5.2081   -5.4388    2.1836 H   0  0  0  0  0  0  0  0  0  0  0  0
  1 27  1  0
  2 38  1  0
  3 19  2  0
  4 22  2  0
  5 37  1  0
  6 12  1  0
  6 14  1  0
  6 16  1  0
  7 13  1  0
  7 15  1  0
  7 19  1  0
  8 20  1  0
  8 21  1  0
  8 22  1  0
  9 16  2  0
  9 22  1  0
 10 20  1  0
 10 29  2  0
 11 24  2  0
 11 35  1  0
 12 13  1  0
 12 17  1  0
 14 15  1  0
 16 18  1  0
 18 20  2  0
 18 23  1  0
 19 26  1  0
 21 24  1  0
 21 28  2  0
 23 27  2  0
 24 25  1  0
 25 30  1  0
 25 31  1  0
 26 36  2  3
 27 29  1  0
 28 32  1  0
 28 34  1  0
 29 33  1  0
 32 35  2  0
 33 37  2  0
 33 38  1  0
 37 39  1  0
 38 40  2  0
 39 41  2  0
 40 41  1  0
  5 42  1  0
 12 43  1  1
 13 44  1  0
 13 45  1  0
 14 46  1  0
 14 47  1  0
 15 48  1  0
 15 49  1  0
 17 50  1  0
 17 51  1  0
 17 52  1  0
 23 53  1  0
 25 54  1  0
 26 55  1  0
 30 56  1  0
 30 57  1  0
 30 58  1  0
 31 59  1  0
 31 60  1  0
 31 61  1  0
 32 62  1  0
 34 63  1  0
 34 64  1  0
 34 65  1  0
 35 66  1  0
 36 67  1  0
 36 68  1  0
 39 69  1  0
 40 70  1  0
 41 71  1  0
M  END
