MODEL 1
REMARK VINA RESULT:    -8.037      0.000      0.000
REMARK INTER + INTRA:         -11.694
REMARK INTER:                 -10.151
REMARK INTRA:                  -1.543
REMARK UNBOUND:                -1.543
REMARK  Name = ABC
REMARK  9 active torsions:
REMARK  status: ('A' for Active; 'I' for Inactive)
REMARK    1  A    between atoms: O_5  and  C_37
REMARK    2  A    between atoms: N_8  and  C_21
REMARK    3  A    between atoms: C_12  and  C_17
REMARK    4  A    between atoms: C_19  and  C_26
REMARK    5  A    between atoms: C_24  and  C_25
REMARK    6  A    between atoms: C_25  and  C_30
REMARK    7  A    between atoms: C_25  and  C_31
REMARK    8  A    between atoms: C_28  and  C_34
REMARK    9  A    between atoms: C_29  and  C_33
REMARK                            x       y       z     vdW  Elec       q    Type
REMARK                         _______ _______ _______ _____ _____    ______ ____
ROOT
ATOM      1  F   UNL     1       3.597 -10.353  -4.027  0.00  0.00    -0.203 F 
ATOM      2  O   UNL     1       1.748 -17.540  -7.358  0.00  0.00    -0.271 OA
ATOM      3  O   UNL     1      -3.230 -12.297  -1.420  0.00  0.00    -0.244 OA
ATOM      4  N   UNL     1      -0.144 -13.840  -4.559  0.00  0.00    -0.309 N 
ATOM      5  N   UNL     1       0.700 -15.593  -6.606  0.00  0.00    -0.295 N 
ATOM      6  N   UNL     1      -1.271 -11.128  -1.562  0.00  0.00    -0.242 N 
ATOM      7  N   UNL     1      -1.707 -13.005  -2.928  0.00  0.00    -0.177 NA
ATOM      8  N   UNL     1       0.762  -9.933  -1.799  0.00  0.00    -0.225 NA
ATOM      9  C   UNL     1      -0.919 -13.881  -5.809  0.00  0.00    +0.089 C 
ATOM     10  C   UNL     1      -0.722 -15.224  -6.543  0.00  0.00    +0.130 C 
ATOM     11  C   UNL     1       0.775 -14.928  -4.209  0.00  0.00    +0.126 C 
ATOM     12  C   UNL     1       1.570 -15.379  -5.438  0.00  0.00    +0.127 C 
ATOM     13  C   UNL     1      -0.504 -12.890  -3.546  0.00  0.00    +0.138 A 
ATOM     14  C   UNL     1      -0.524 -12.697  -6.697  0.00  0.00    +0.029 C 
ATOM     15  C   UNL     1       0.359 -11.844  -3.184  0.00  0.00    +0.061 A 
ATOM     16  C   UNL     1       1.156 -16.468  -7.656  0.00  0.00    +0.239 C 
ATOM     17  C   UNL     1      -0.053 -10.962  -2.164  0.00  0.00    +0.153 A 
ATOM     18  C   UNL     1      -2.098 -12.145  -1.955  0.00  0.00    +0.356 A 
ATOM     19  C   UNL     1       1.597 -11.628  -3.812  0.00  0.00    +0.055 A 
ATOM     20  C   UNL     1       2.400 -10.556  -3.420  0.00  0.00    +0.150 A 
ATOM     21  C   UNL     1       1.959  -9.701  -2.399  0.00  0.00    +0.115 A 
ENDROOT
BRANCH  21  23
ATOM     22  F   UNL     1       4.583 -10.055  -1.444  0.00  0.00    -0.205 F 
ATOM     23  C   UNL     1       2.775  -8.560  -1.953  0.00  0.00    +0.080 A 
ATOM     24  C   UNL     1       2.270  -7.237  -1.971  0.00  0.00    +0.129 A 
ATOM     25  C   UNL     1       4.079  -8.794  -1.481  0.00  0.00    +0.136 A 
ATOM     26  C   UNL     1       3.087  -6.179  -1.555  0.00  0.00    +0.046 A 
ATOM     27  C   UNL     1       4.881  -7.727  -1.066  0.00  0.00    +0.039 A 
ATOM     28  C   UNL     1       4.387  -6.421  -1.107  0.00  0.00    +0.006 A 
BRANCH  24  29
ATOM     29  O   UNL     1       0.962  -6.951  -2.372  0.00  0.00    -0.506 OA
ATOM     30  H   UNL     1       0.270  -6.556  -1.748  0.00  0.00    +0.292 HD
ENDBRANCH  24  29
ENDBRANCH  21  23
BRANCH   6  32
ATOM     31  N   UNL     1      -1.926  -9.637   1.783  0.00  0.00    -0.258 NA
ATOM     32  C   UNL     1      -1.694 -10.211  -0.532  0.00  0.00    +0.077 A 
ATOM     33  C   UNL     1      -1.496 -10.517   0.836  0.00  0.00    +0.068 A 
ATOM     34  C   UNL     1      -2.340  -9.006  -0.881  0.00  0.00    -0.023 A 
ATOM     35  C   UNL     1      -2.753  -8.131   0.132  0.00  0.00    +0.025 A 
ATOM     36  C   UNL     1      -2.577  -8.649  -2.321  0.00  0.00    +0.046 C 
ATOM     37  C   UNL     1      -2.538  -8.468   1.466  0.00  0.00    +0.111 A 
BRANCH  33  38
ATOM     38  C   UNL     1      -0.831 -11.804   1.287  0.00  0.00    +0.034 C 
ATOM     39  C   UNL     1       0.293 -11.504   2.284  0.00  0.00    +0.014 C 
ATOM     40  C   UNL     1      -1.869 -12.751   1.901  0.00  0.00    +0.014 C 
ENDBRANCH  33  38
ENDBRANCH   6  32
BRANCH  16  41
ATOM     41  C   UNL     1       0.951 -16.159  -9.083  0.00  0.00    +0.060 C 
ATOM     42  C   UNL     1       1.393 -15.038  -9.646  0.00  0.00    +0.013 C 
ENDBRANCH  16  41
TORSDOF 5
ENDMDL
MODEL 2
REMARK VINA RESULT:    -7.546      2.872      6.968
REMARK INTER + INTRA:         -11.074
REMARK INTER:                  -9.386
REMARK INTRA:                  -1.689
REMARK UNBOUND:                -1.543
REMARK  Name = ABC
REMARK  9 active torsions:
REMARK  status: ('A' for Active; 'I' for Inactive)
REMARK    1  A    between atoms: O_5  and  C_37
REMARK    2  A    between atoms: N_8  and  C_21
REMARK    3  A    between atoms: C_12  and  C_17
REMARK    4  A    between atoms: C_19  and  C_26
REMARK    5  A    between atoms: C_24  and  C_25
REMARK    6  A    between atoms: C_25  and  C_30
REMARK    7  A    between atoms: C_25  and  C_31
REMARK    8  A    between atoms: C_28  and  C_34
REMARK    9  A    between atoms: C_29  and  C_33
REMARK                            x       y       z     vdW  Elec       q    Type
REMARK                         _______ _______ _______ _____ _____    ______ ____
ROOT
ATOM      1  F   UNL     1       1.132  -7.908  -1.068  0.00  0.00    -0.203 F 
ATOM      2  O   UNL     1      -6.998  -8.120  -0.963  0.00  0.00    -0.271 OA
ATOM      3  O   UNL     1      -0.890 -15.158  -1.796  0.00  0.00    -0.244 OA
ATOM      4  N   UNL     1      -2.935 -11.052  -0.951  0.00  0.00    -0.309 N 
ATOM      5  N   UNL     1      -5.166  -9.429  -0.344  0.00  0.00    -0.295 N 
ATOM      6  N   UNL     1       0.482 -13.330  -1.810  0.00  0.00    -0.242 N 
ATOM      7  N   UNL     1      -1.835 -13.148  -1.389  0.00  0.00    -0.177 NA
ATOM      8  N   UNL     1       1.853 -11.398  -1.757  0.00  0.00    -0.225 NA
ATOM      9  C   UNL     1      -3.637 -11.275   0.323  0.00  0.00    +0.089 C 
ATOM     10  C   UNL     1      -5.095 -10.772   0.252  0.00  0.00    +0.130 C 
ATOM     11  C   UNL     1      -3.578 -10.315  -2.044  0.00  0.00    +0.126 C 
ATOM     12  C   UNL     1      -4.324  -9.091  -1.504  0.00  0.00    +0.127 C 
ATOM     13  C   UNL     1      -1.746 -11.803  -1.233  0.00  0.00    +0.138 A 
ATOM     14  C   UNL     1      -2.867 -10.594   1.459  0.00  0.00    +0.029 C 
ATOM     15  C   UNL     1      -0.495 -11.178  -1.347  0.00  0.00    +0.061 A 
ATOM     16  C   UNL     1      -6.283  -8.576  -0.031  0.00  0.00    +0.239 C 
ATOM     17  C   UNL     1       0.626 -11.978  -1.649  0.00  0.00    +0.153 A 
ATOM     18  C   UNL     1      -0.749 -13.911  -1.668  0.00  0.00    +0.356 A 
ATOM     19  C   UNL     1      -0.313  -9.799  -1.150  0.00  0.00    +0.055 A 
ATOM     20  C   UNL     1       0.962  -9.241  -1.257  0.00  0.00    +0.150 A 
ATOM     21  C   UNL     1       2.053 -10.069  -1.562  0.00  0.00    +0.115 A 
ENDROOT
BRANCH  21  23
ATOM     22  F   UNL     1       3.931 -10.314   0.520  0.00  0.00    -0.205 F 
ATOM     23  C   UNL     1       3.414  -9.522  -1.686  0.00  0.00    +0.080 A 
ATOM     24  C   UNL     1       3.832  -8.835  -2.852  0.00  0.00    +0.129 A 
ATOM     25  C   UNL     1       4.312  -9.669  -0.613  0.00  0.00    +0.136 A 
ATOM     26  C   UNL     1       5.142  -8.347  -2.935  0.00  0.00    +0.046 A 
ATOM     27  C   UNL     1       5.614  -9.172  -0.711  0.00  0.00    +0.039 A 
ATOM     28  C   UNL     1       6.030  -8.516  -1.872  0.00  0.00    +0.006 A 
BRANCH  24  29
ATOM     29  O   UNL     1       2.967  -8.605  -3.925  0.00  0.00    -0.506 OA
ATOM     30  H   UNL     1       2.007  -8.309  -3.803  0.00  0.00    +0.292 HD
ENDBRANCH  24  29
ENDBRANCH  21  23
BRANCH   6  32
ATOM     31  N   UNL     1       3.531 -15.414  -1.361  0.00  0.00    -0.258 NA
ATOM     32  C   UNL     1       1.636 -14.146  -2.099  0.00  0.00    +0.077 A 
ATOM     33  C   UNL     1       2.437 -14.664  -1.052  0.00  0.00    +0.068 A 
ATOM     34  C   UNL     1       1.995 -14.414  -3.436  0.00  0.00    -0.023 A 
ATOM     35  C   UNL     1       3.124 -15.201  -3.699  0.00  0.00    +0.025 A 
ATOM     36  C   UNL     1       1.176 -13.876  -4.576  0.00  0.00    +0.046 C 
ATOM     37  C   UNL     1       3.885 -15.692  -2.641  0.00  0.00    +0.111 A 
BRANCH  33  38
ATOM     38  C   UNL     1       2.127 -14.397   0.409  0.00  0.00    +0.034 C 
ATOM     39  C   UNL     1       2.054 -15.714   1.189  0.00  0.00    +0.014 C 
ATOM     40  C   UNL     1       3.180 -13.461   1.013  0.00  0.00    +0.014 C 
ENDBRANCH  33  38
ENDBRANCH   6  32
BRANCH  16  41
ATOM     41  C   UNL     1      -6.633  -8.215   1.356  0.00  0.00    +0.060 C 
ATOM     42  C   UNL     1      -5.720  -8.063   2.311  0.00  0.00    +0.013 C 
ENDBRANCH  16  41
TORSDOF 5
ENDMDL
MODEL 3
REMARK VINA RESULT:    -7.237     18.206     22.933
REMARK INTER + INTRA:         -10.685
REMARK INTER:                  -8.990
REMARK INTRA:                  -1.694
REMARK UNBOUND:                -1.543
REMARK  Name = ABC
REMARK  9 active torsions:
REMARK  status: ('A' for Active; 'I' for Inactive)
REMARK    1  A    between atoms: O_5  and  C_37
REMARK    2  A    between atoms: N_8  and  C_21
REMARK    3  A    between atoms: C_12  and  C_17
REMARK    4  A    between atoms: C_19  and  C_26
REMARK    5  A    between atoms: C_24  and  C_25
REMARK    6  A    between atoms: C_25  and  C_30
REMARK    7  A    between atoms: C_25  and  C_31
REMARK    8  A    between atoms: C_28  and  C_34
REMARK    9  A    between atoms: C_29  and  C_33
REMARK                            x       y       z     vdW  Elec       q    Type
REMARK                         _______ _______ _______ _____ _____    ______ ____
ROOT
ATOM      1  F   UNL     1     -11.699   6.679   5.533  0.00  0.00    -0.203 F 
ATOM      2  O   UNL     1      -4.080   4.439   3.774  0.00  0.00    -0.271 OA
ATOM      3  O   UNL     1      -9.030   3.012  11.584  0.00  0.00    -0.244 OA
ATOM      4  N   UNL     1      -7.689   3.933   7.212  0.00  0.00    -0.309 N 
ATOM      5  N   UNL     1      -5.914   3.716   5.026  0.00  0.00    -0.295 N 
ATOM      6  N   UNL     1     -10.447   4.314  10.352  0.00  0.00    -0.242 N 
ATOM      7  N   UNL     1      -8.424   3.482   9.461  0.00  0.00    -0.177 NA
ATOM      8  N   UNL     1     -11.894   5.616   8.999  0.00  0.00    -0.225 NA
ATOM      9  C   UNL     1      -7.440   2.599   6.643  0.00  0.00    +0.089 C 
ATOM     10  C   UNL     1      -6.083   2.552   5.909  0.00  0.00    +0.130 C 
ATOM     11  C   UNL     1      -6.773   5.047   6.947  0.00  0.00    +0.126 C 
ATOM     12  C   UNL     1      -6.342   5.051   5.477  0.00  0.00    +0.127 C 
ATOM     13  C   UNL     1      -8.657   4.073   8.262  0.00  0.00    +0.138 A 
ATOM     14  C   UNL     1      -8.593   2.216   5.710  0.00  0.00    +0.029 C 
ATOM     15  C   UNL     1      -9.840   4.805   8.073  0.00  0.00    +0.061 A 
ATOM     16  C   UNL     1      -5.031   3.620   3.893  0.00  0.00    +0.239 C 
ATOM     17  C   UNL     1     -10.734   4.919   9.158  0.00  0.00    +0.153 A 
ATOM     18  C   UNL     1      -9.296   3.589  10.494  0.00  0.00    +0.356 A 
ATOM     19  C   UNL     1     -10.177   5.403   6.847  0.00  0.00    +0.055 A 
ATOM     20  C   UNL     1     -11.380   6.100   6.719  0.00  0.00    +0.150 A 
ATOM     21  C   UNL     1     -12.242   6.195   7.820  0.00  0.00    +0.115 A 
ENDROOT
BRANCH  21  23
ATOM     22  F   UNL     1     -14.553   4.980   6.769  0.00  0.00    -0.205 F 
ATOM     23  C   UNL     1     -13.520   6.922   7.729  0.00  0.00    +0.080 A 
ATOM     24  C   UNL     1     -13.637   8.268   8.151  0.00  0.00    +0.129 A 
ATOM     25  C   UNL     1     -14.643   6.268   7.191  0.00  0.00    +0.136 A 
ATOM     26  C   UNL     1     -14.875   8.916   8.063  0.00  0.00    +0.046 A 
ATOM     27  C   UNL     1     -15.870   6.930   7.106  0.00  0.00    +0.039 A 
ATOM     28  C   UNL     1     -15.988   8.250   7.546  0.00  0.00    +0.006 A 
BRANCH  24  29
ATOM     29  O   UNL     1     -12.542   8.988   8.637  0.00  0.00    -0.506 OA
ATOM     30  H   UNL     1     -12.574   9.984   8.814  0.00  0.00    +0.292 HD
ENDBRANCH  24  29
ENDBRANCH  21  23
BRANCH   6  32
ATOM     31  N   UNL     1     -13.227   3.557  12.705  0.00  0.00    -0.258 NA
ATOM     32  C   UNL     1     -11.375   4.418  11.451  0.00  0.00    +0.077 A 
ATOM     33  C   UNL     1     -12.354   3.418  11.669  0.00  0.00    +0.068 A 
ATOM     34  C   UNL     1     -11.335   5.539  12.307  0.00  0.00    -0.023 A 
ATOM     35  C   UNL     1     -12.250   5.628  13.364  0.00  0.00    +0.025 A 
ATOM     36  C   UNL     1     -10.318   6.626  12.104  0.00  0.00    +0.046 C 
ATOM     37  C   UNL     1     -13.196   4.622  13.545  0.00  0.00    +0.111 A 
BRANCH  33  38
ATOM     38  C   UNL     1     -12.474   2.198  10.776  0.00  0.00    +0.034 C 
ATOM     39  C   UNL     1     -12.177   0.922  11.571  0.00  0.00    +0.014 C 
ATOM     40  C   UNL     1     -13.869   2.137  10.143  0.00  0.00    +0.014 C 
ENDBRANCH  33  38
ENDBRANCH   6  32
BRANCH  16  41
ATOM     41  C   UNL     1      -5.192   2.586   2.855  0.00  0.00    +0.060 C 
ATOM     42  C   UNL     1      -6.130   2.652   1.914  0.00  0.00    +0.013 C 
ENDBRANCH  16  41
TORSDOF 5
ENDMDL
MODEL 4
REMARK VINA RESULT:    -7.186      0.797      2.089
REMARK INTER + INTRA:         -10.620
REMARK INTER:                  -8.830
REMARK INTRA:                  -1.789
REMARK UNBOUND:                -1.543
REMARK  Name = ABC
REMARK  9 active torsions:
REMARK  status: ('A' for Active; 'I' for Inactive)
REMARK    1  A    between atoms: O_5  and  C_37
REMARK    2  A    between atoms: N_8  and  C_21
REMARK    3  A    between atoms: C_12  and  C_17
REMARK    4  A    between atoms: C_19  and  C_26
REMARK    5  A    between atoms: C_24  and  C_25
REMARK    6  A    between atoms: C_25  and  C_30
REMARK    7  A    between atoms: C_25  and  C_31
REMARK    8  A    between atoms: C_28  and  C_34
REMARK    9  A    between atoms: C_29  and  C_33
REMARK                            x       y       z     vdW  Elec       q    Type
REMARK                         _______ _______ _______ _____ _____    ______ ____
ROOT
ATOM      1  F   UNL     1       3.627 -10.731  -4.296  0.00  0.00    -0.203 F 
ATOM      2  O   UNL     1       1.409 -17.521  -8.186  0.00  0.00    -0.271 OA
ATOM      3  O   UNL     1      -3.107 -12.759  -1.519  0.00  0.00    -0.244 OA
ATOM      4  N   UNL     1      -0.232 -14.065  -4.952  0.00  0.00    -0.309 N 
ATOM      5  N   UNL     1       0.456 -15.632  -7.199  0.00  0.00    -0.295 N 
ATOM      6  N   UNL     1      -1.126 -11.627  -1.655  0.00  0.00    -0.242 N 
ATOM      7  N   UNL     1      -1.684 -13.354  -3.167  0.00  0.00    -0.177 NA
ATOM      8  N   UNL     1       0.923 -10.462  -1.889  0.00  0.00    -0.225 NA
ATOM      9  C   UNL     1      -1.072 -13.967  -6.157  0.00  0.00    +0.089 C 
ATOM     10  C   UNL     1      -0.950 -15.238  -7.024  0.00  0.00    +0.130 C 
ATOM     11  C   UNL     1       0.673 -15.202  -4.756  0.00  0.00    +0.126 C 
ATOM     12  C   UNL     1       1.391 -15.550  -6.063  0.00  0.00    +0.127 C 
ATOM     13  C   UNL     1      -0.512 -13.208  -3.836  0.00  0.00    +0.138 A 
ATOM     14  C   UNL     1      -0.689 -12.713  -6.948  0.00  0.00    +0.029 C 
ATOM     15  C   UNL     1       0.396 -12.221  -3.424  0.00  0.00    +0.061 A 
ATOM     16  C   UNL     1       0.833 -16.412  -8.349  0.00  0.00    +0.239 C 
ATOM     17  C   UNL     1       0.063 -11.432  -2.304  0.00  0.00    +0.153 A 
ATOM     18  C   UNL     1      -2.001 -12.583  -2.098  0.00  0.00    +0.356 A 
ATOM     19  C   UNL     1       1.607 -11.974  -4.095  0.00  0.00    +0.055 A 
ATOM     20  C   UNL     1       2.458 -10.963  -3.647  0.00  0.00    +0.150 A 
ATOM     21  C   UNL     1       2.094 -10.201  -2.527  0.00  0.00    +0.115 A 
ENDROOT
BRANCH  21  23
ATOM     22  F   UNL     1       4.555 -10.765  -1.283  0.00  0.00    -0.205 F 
ATOM     23  C   UNL     1       2.964  -9.126  -2.020  0.00  0.00    +0.080 A 
ATOM     24  C   UNL     1       2.593  -7.764  -2.123  0.00  0.00    +0.129 A 
ATOM     25  C   UNL     1       4.182  -9.465  -1.403  0.00  0.00    +0.136 A 
ATOM     26  C   UNL     1       3.458  -6.773  -1.643  0.00  0.00    +0.046 A 
ATOM     27  C   UNL     1       5.032  -8.464  -0.927  0.00  0.00    +0.039 A 
ATOM     28  C   UNL     1       4.674  -7.120  -1.051  0.00  0.00    +0.006 A 
BRANCH  24  29
ATOM     29  O   UNL     1       1.369  -7.370  -2.671  0.00  0.00    -0.506 OA
ATOM     30  H   UNL     1       0.796  -7.984  -3.236  0.00  0.00    +0.292 HD
ENDBRANCH  24  29
ENDBRANCH  21  23
BRANCH   6  32
ATOM     31  N   UNL     1      -2.361  -8.772   0.385  0.00  0.00    -0.258 NA
ATOM     32  C   UNL     1      -1.471 -10.804  -0.523  0.00  0.00    +0.077 A 
ATOM     33  C   UNL     1      -2.067  -9.532  -0.707  0.00  0.00    +0.068 A 
ATOM     34  C   UNL     1      -1.188 -11.247   0.786  0.00  0.00    -0.023 A 
ATOM     35  C   UNL     1      -1.521 -10.431   1.875  0.00  0.00    +0.025 A 
ATOM     36  C   UNL     1      -0.548 -12.587   1.024  0.00  0.00    +0.046 C 
ATOM     37  C   UNL     1      -2.107  -9.188   1.651  0.00  0.00    +0.111 A 
BRANCH  33  38
ATOM     38  C   UNL     1      -2.377  -8.978  -2.084  0.00  0.00    +0.034 C 
ATOM     39  C   UNL     1      -3.816  -9.319  -2.485  0.00  0.00    +0.014 C 
ATOM     40  C   UNL     1      -2.146  -7.463  -2.112  0.00  0.00    +0.014 C 
ENDBRANCH  33  38
ENDBRANCH   6  32
BRANCH  16  41
ATOM     41  C   UNL     1       0.563 -15.963  -9.727  0.00  0.00    +0.060 C 
ATOM     42  C   UNL     1       1.009 -14.805 -10.206  0.00  0.00    +0.013 C 
ENDBRANCH  16  41
TORSDOF 5
ENDMDL
MODEL 5
REMARK VINA RESULT:    -7.147     22.350     24.709
REMARK INTER + INTRA:         -10.570
REMARK INTER:                  -8.820
REMARK INTRA:                  -1.750
REMARK UNBOUND:                -1.543
REMARK  Name = ABC
REMARK  9 active torsions:
REMARK  status: ('A' for Active; 'I' for Inactive)
REMARK    1  A    between atoms: O_5  and  C_37
REMARK    2  A    between atoms: N_8  and  C_21
REMARK    3  A    between atoms: C_12  and  C_17
REMARK    4  A    between atoms: C_19  and  C_26
REMARK    5  A    between atoms: C_24  and  C_25
REMARK    6  A    between atoms: C_25  and  C_30
REMARK    7  A    between atoms: C_25  and  C_31
REMARK    8  A    between atoms: C_28  and  C_34
REMARK    9  A    between atoms: C_29  and  C_33
REMARK                            x       y       z     vdW  Elec       q    Type
REMARK                         _______ _______ _______ _____ _____    ______ ____
ROOT
ATOM      1  F   UNL     1      25.973  -6.001   1.340  0.00  0.00    -0.203 F 
ATOM      2  O   UNL     1      22.059  -8.722  -5.251  0.00  0.00    -0.271 OA
ATOM      3  O   UNL     1      20.155  -1.321   0.146  0.00  0.00    -0.244 OA
ATOM      4  N   UNL     1      22.215  -4.915  -1.998  0.00  0.00    -0.309 N 
ATOM      5  N   UNL     1      22.529  -6.717  -4.150  0.00  0.00    -0.295 N 
ATOM      6  N   UNL     1      21.904  -2.284   1.257  0.00  0.00    -0.242 N 
ATOM      7  N   UNL     1      21.185  -3.062  -0.855  0.00  0.00    -0.177 NA
ATOM      8  N   UNL     1      23.759  -3.299   2.327  0.00  0.00    -0.225 NA
ATOM      9  C   UNL     1      22.561  -4.371  -3.321  0.00  0.00    +0.089 C 
ATOM     10  C   UNL     1      22.129  -5.333  -4.448  0.00  0.00    +0.130 C 
ATOM     11  C   UNL     1      21.659  -6.265  -1.862  0.00  0.00    +0.126 C 
ATOM     12  C   UNL     1      22.392  -7.245  -2.782  0.00  0.00    +0.127 C 
ATOM     13  C   UNL     1      22.142  -4.024  -0.875  0.00  0.00    +0.138 A 
ATOM     14  C   UNL     1      24.063  -4.081  -3.379  0.00  0.00    +0.029 C 
ATOM     15  C   UNL     1      23.041  -4.124   0.198  0.00  0.00    +0.061 A 
ATOM     16  C   UNL     1      22.716  -7.647  -5.233  0.00  0.00    +0.239 C 
ATOM     17  C   UNL     1      22.894  -3.229   1.277  0.00  0.00    +0.153 A 
ATOM     18  C   UNL     1      21.059  -2.199   0.183  0.00  0.00    +0.356 A 
ATOM     19  C   UNL     1      24.090  -5.059   0.227  0.00  0.00    +0.055 A 
ATOM     20  C   UNL     1      24.964  -5.094   1.315  0.00  0.00    +0.150 A 
ATOM     21  C   UNL     1      24.784  -4.189   2.372  0.00  0.00    +0.115 A 
ENDROOT
BRANCH  21  23
ATOM     22  F   UNL     1      24.908  -6.389   4.124  0.00  0.00    -0.205 F 
ATOM     23  C   UNL     1      25.681  -4.193   3.539  0.00  0.00    +0.080 A 
ATOM     24  C   UNL     1      26.509  -3.084   3.839  0.00  0.00    +0.129 A 
ATOM     25  C   UNL     1      25.701  -5.317   4.385  0.00  0.00    +0.136 A 
ATOM     26  C   UNL     1      27.360  -3.137   4.950  0.00  0.00    +0.046 A 
ATOM     27  C   UNL     1      26.553  -5.352   5.491  0.00  0.00    +0.039 A 
ATOM     28  C   UNL     1      27.386  -4.265   5.771  0.00  0.00    +0.006 A 
BRANCH  24  29
ATOM     29  O   UNL     1      26.488  -1.916   3.071  0.00  0.00    -0.506 OA
ATOM     30  H   UNL     1      26.826  -1.027   3.415  0.00  0.00    +0.292 HD
ENDBRANCH  24  29
ENDBRANCH  21  23
BRANCH   6  32
ATOM     31  N   UNL     1      22.396   0.679   3.452  0.00  0.00    -0.258 NA
ATOM     32  C   UNL     1      21.772  -1.359   2.355  0.00  0.00    +0.077 A 
ATOM     33  C   UNL     1      22.531  -0.164   2.390  0.00  0.00    +0.068 A 
ATOM     34  C   UNL     1      20.900  -1.651   3.425  0.00  0.00    -0.023 A 
ATOM     35  C   UNL     1      20.790  -0.745   4.488  0.00  0.00    +0.025 A 
ATOM     36  C   UNL     1      20.083  -2.913   3.429  0.00  0.00    +0.046 C 
ATOM     37  C   UNL     1      21.554   0.420   4.484  0.00  0.00    +0.111 A 
BRANCH  33  38
ATOM     38  C   UNL     1      23.506   0.206   1.288  0.00  0.00    +0.034 C 
ATOM     39  C   UNL     1      22.824   1.101   0.249  0.00  0.00    +0.014 C 
ATOM     40  C   UNL     1      24.740   0.896   1.880  0.00  0.00    +0.014 C 
ENDBRANCH  33  38
ENDBRANCH   6  32
BRANCH  16  41
ATOM     41  C   UNL     1      23.655  -7.386  -6.340  0.00  0.00    +0.060 C 
ATOM     42  C   UNL     1      24.943  -7.118  -6.142  0.00  0.00    +0.013 C 
ENDBRANCH  16  41
TORSDOF 5
ENDMDL
MODEL 6
REMARK VINA RESULT:    -7.086      3.143      7.970
REMARK INTER + INTRA:         -10.494
REMARK INTER:                  -8.770
REMARK INTRA:                  -1.724
REMARK UNBOUND:                -1.543
REMARK  Name = ABC
REMARK  9 active torsions:
REMARK  status: ('A' for Active; 'I' for Inactive)
REMARK    1  A    between atoms: O_5  and  C_37
REMARK    2  A    between atoms: N_8  and  C_21
REMARK    3  A    between atoms: C_12  and  C_17
REMARK    4  A    between atoms: C_19  and  C_26
REMARK    5  A    between atoms: C_24  and  C_25
REMARK    6  A    between atoms: C_25  and  C_30
REMARK    7  A    between atoms: C_25  and  C_31
REMARK    8  A    between atoms: C_28  and  C_34
REMARK    9  A    between atoms: C_29  and  C_33
REMARK                            x       y       z     vdW  Elec       q    Type
REMARK                         _______ _______ _______ _____ _____    ______ ____
ROOT
ATOM      1  F   UNL     1       0.923 -12.034   2.014  0.00  0.00    -0.203 F 
ATOM      2  O   UNL     1       6.708  -7.123  -0.918  0.00  0.00    -0.271 OA
ATOM      3  O   UNL     1       0.743 -12.672  -5.519  0.00  0.00    -0.244 OA
ATOM      4  N   UNL     1       2.895 -10.063  -2.307  0.00  0.00    -0.309 N 
ATOM      5  N   UNL     1       4.611  -7.968  -1.504  0.00  0.00    -0.295 N 
ATOM      6  N   UNL     1       0.284 -13.181  -3.339  0.00  0.00    -0.242 N 
ATOM      7  N   UNL     1       1.760 -11.433  -3.929  0.00  0.00    -0.177 NA
ATOM      8  N   UNL     1      -0.186 -13.619  -1.058  0.00  0.00    -0.225 NA
ATOM      9  C   UNL     1       2.548  -8.687  -2.695  0.00  0.00    +0.089 C 
ATOM     10  C   UNL     1       3.798  -7.781  -2.716  0.00  0.00    +0.130 C 
ATOM     11  C   UNL     1       4.257 -10.403  -1.880  0.00  0.00    +0.126 C 
ATOM     12  C   UNL     1       4.818  -9.319  -0.956  0.00  0.00    +0.127 C 
ATOM     13  C   UNL     1       1.988 -11.127  -2.627  0.00  0.00    +0.138 A 
ATOM     14  C   UNL     1       1.479  -8.140  -1.745  0.00  0.00    +0.029 C 
ATOM     15  C   UNL     1       1.331 -11.855  -1.623  0.00  0.00    +0.061 A 
ATOM     16  C   UNL     1       5.475  -6.903  -1.064  0.00  0.00    +0.239 C 
ATOM     17  C   UNL     1       0.472 -12.903  -2.012  0.00  0.00    +0.153 A 
ATOM     18  C   UNL     1       0.922 -12.436  -4.293  0.00  0.00    +0.356 A 
ATOM     19  C   UNL     1       1.476 -11.566  -0.255  0.00  0.00    +0.055 A 
ATOM     20  C   UNL     1       0.777 -12.315   0.694  0.00  0.00    +0.150 A 
ATOM     21  C   UNL     1      -0.066 -13.352   0.268  0.00  0.00    +0.115 A 
ENDROOT
BRANCH  21  23
ATOM     22  F   UNL     1       1.218 -15.236   1.919  0.00  0.00    -0.205 F 
ATOM     23  C   UNL     1      -0.820 -14.167   1.236  0.00  0.00    +0.080 A 
ATOM     24  C   UNL     1      -2.224 -14.050   1.366  0.00  0.00    +0.129 A 
ATOM     25  C   UNL     1      -0.128 -15.097   2.033  0.00  0.00    +0.136 A 
ATOM     26  C   UNL     1      -2.899 -14.832   2.311  0.00  0.00    +0.046 A 
ATOM     27  C   UNL     1      -0.817 -15.873   2.969  0.00  0.00    +0.039 A 
ATOM     28  C   UNL     1      -2.200 -15.737   3.112  0.00  0.00    +0.006 A 
BRANCH  24  29
ATOM     29  O   UNL     1      -2.973 -13.188   0.560  0.00  0.00    -0.506 OA
ATOM     30  H   UNL     1      -3.348 -12.309   0.893  0.00  0.00    +0.292 HD
ENDBRANCH  24  29
ENDBRANCH  21  23
BRANCH   6  32
ATOM     31  N   UNL     1      -1.003 -16.534  -4.310  0.00  0.00    -0.258 NA
ATOM     32  C   UNL     1      -0.612 -14.241  -3.731  0.00  0.00    +0.077 A 
ATOM     33  C   UNL     1      -0.133 -15.560  -3.920  0.00  0.00    +0.068 A 
ATOM     34  C   UNL     1      -1.976 -13.966  -3.960  0.00  0.00    -0.023 A 
ATOM     35  C   UNL     1      -2.831 -15.006  -4.349  0.00  0.00    +0.025 A 
ATOM     36  C   UNL     1      -2.522 -12.577  -3.779  0.00  0.00    +0.046 C 
ATOM     37  C   UNL     1      -2.321 -16.290  -4.523  0.00  0.00    +0.111 A 
BRANCH  33  38
ATOM     38  C   UNL     1       1.325 -15.926  -3.718  0.00  0.00    +0.034 C 
ATOM     39  C   UNL     1       1.489 -16.795  -2.466  0.00  0.00    +0.014 C 
ATOM     40  C   UNL     1       1.870 -16.645  -4.957  0.00  0.00    +0.014 C 
ENDBRANCH  33  38
ENDBRANCH   6  32
BRANCH  16  41
ATOM     41  C   UNL     1       4.972  -5.547  -0.779  0.00  0.00    +0.060 C 
ATOM     42  C   UNL     1       3.750  -5.319  -0.304  0.00  0.00    +0.013 C 
ENDBRANCH  16  41
TORSDOF 5
ENDMDL
MODEL 7
REMARK VINA RESULT:    -7.065      3.281      7.994
REMARK INTER + INTRA:         -10.466
REMARK INTER:                  -8.731
REMARK INTRA:                  -1.735
REMARK UNBOUND:                -1.543
REMARK  Name = ABC
REMARK  9 active torsions:
REMARK  status: ('A' for Active; 'I' for Inactive)
REMARK    1  A    between atoms: O_5  and  C_37
REMARK    2  A    between atoms: N_8  and  C_21
REMARK    3  A    between atoms: C_12  and  C_17
REMARK    4  A    between atoms: C_19  and  C_26
REMARK    5  A    between atoms: C_24  and  C_25
REMARK    6  A    between atoms: C_25  and  C_30
REMARK    7  A    between atoms: C_25  and  C_31
REMARK    8  A    between atoms: C_28  and  C_34
REMARK    9  A    between atoms: C_29  and  C_33
REMARK                            x       y       z     vdW  Elec       q    Type
REMARK                         _______ _______ _______ _____ _____    ______ ____
ROOT
ATOM      1  F   UNL     1       1.006 -12.098   2.003  0.00  0.00    -0.203 F 
ATOM      2  O   UNL     1       6.710  -7.092  -0.924  0.00  0.00    -0.271 OA
ATOM      3  O   UNL     1       0.728 -12.613  -5.536  0.00  0.00    -0.244 OA
ATOM      4  N   UNL     1       2.903 -10.039  -2.311  0.00  0.00    -0.309 N 
ATOM      5  N   UNL     1       4.612  -7.944  -1.496  0.00  0.00    -0.295 N 
ATOM      6  N   UNL     1       0.302 -13.162  -3.359  0.00  0.00    -0.242 N 
ATOM      7  N   UNL     1       1.756 -11.392  -3.939  0.00  0.00    -0.177 NA
ATOM      8  N   UNL     1      -0.132 -13.642  -1.079  0.00  0.00    -0.225 NA
ATOM      9  C   UNL     1       2.540  -8.660  -2.671  0.00  0.00    +0.089 C 
ATOM     10  C   UNL     1       3.782  -7.745  -2.694  0.00  0.00    +0.130 C 
ATOM     11  C   UNL     1       4.272 -10.375  -1.908  0.00  0.00    +0.126 C 
ATOM     12  C   UNL     1       4.838  -9.302  -0.973  0.00  0.00    +0.127 C 
ATOM     13  C   UNL     1       2.000 -11.106  -2.635  0.00  0.00    +0.138 A 
ATOM     14  C   UNL     1       1.479  -8.138  -1.697  0.00  0.00    +0.029 C 
ATOM     15  C   UNL     1       1.362 -11.856  -1.635  0.00  0.00    +0.061 A 
ATOM     16  C   UNL     1       5.474  -6.880  -1.050  0.00  0.00    +0.239 C 
ATOM     17  C   UNL     1       0.506 -12.904  -2.030  0.00  0.00    +0.153 A 
ATOM     18  C   UNL     1       0.922 -12.396  -4.309  0.00  0.00    +0.356 A 
ATOM     19  C   UNL     1       1.524 -11.588  -0.265  0.00  0.00    +0.055 A 
ATOM     20  C   UNL     1       0.844 -12.358   0.681  0.00  0.00    +0.150 A 
ATOM     21  C   UNL     1       0.003 -13.394   0.250  0.00  0.00    +0.115 A 
ENDROOT
BRANCH  21  23
ATOM     22  F   UNL     1       1.315 -15.341   1.803  0.00  0.00    -0.205 F 
ATOM     23  C   UNL     1      -0.731 -14.232   1.214  0.00  0.00    +0.080 A 
ATOM     24  C   UNL     1      -2.130 -14.105   1.389  0.00  0.00    +0.129 A 
ATOM     25  C   UNL     1      -0.026 -15.193   1.961  0.00  0.00    +0.136 A 
ATOM     26  C   UNL     1      -2.785 -14.909   2.330  0.00  0.00    +0.046 A 
ATOM     27  C   UNL     1      -0.696 -15.990   2.893  0.00  0.00    +0.039 A 
ATOM     28  C   UNL     1      -2.072 -15.846   3.081  0.00  0.00    +0.006 A 
BRANCH  24  29
ATOM     29  O   UNL     1      -2.892 -13.211   0.632  0.00  0.00    -0.506 OA
ATOM     30  H   UNL     1      -2.480 -12.519   0.019  0.00  0.00    +0.292 HD
ENDBRANCH  24  29
ENDBRANCH  21  23
BRANCH   6  32
ATOM     31  N   UNL     1      -2.791 -15.005  -4.295  0.00  0.00    -0.258 NA
ATOM     32  C   UNL     1      -0.590 -14.223  -3.756  0.00  0.00    +0.077 A 
ATOM     33  C   UNL     1      -1.972 -13.975  -3.939  0.00  0.00    +0.068 A 
ATOM     34  C   UNL     1      -0.096 -15.531  -3.940  0.00  0.00    -0.023 A 
ATOM     35  C   UNL     1      -0.978 -16.551  -4.318  0.00  0.00    +0.025 A 
ATOM     36  C   UNL     1       1.364 -15.836  -3.748  0.00  0.00    +0.046 C 
ATOM     37  C   UNL     1      -2.330 -16.267  -4.489  0.00  0.00    +0.111 A 
BRANCH  33  38
ATOM     38  C   UNL     1      -2.580 -12.600  -3.735  0.00  0.00    +0.034 C 
ATOM     39  C   UNL     1      -2.970 -11.983  -5.082  0.00  0.00    +0.014 C 
ATOM     40  C   UNL     1      -3.793 -12.688  -2.801  0.00  0.00    +0.014 C 
ENDBRANCH  33  38
ENDBRANCH   6  32
BRANCH  16  41
ATOM     41  C   UNL     1       4.964  -5.533  -0.736  0.00  0.00    +0.060 C 
ATOM     42  C   UNL     1       3.731  -5.319  -0.286  0.00  0.00    +0.013 C 
ENDBRANCH  16  41
TORSDOF 5
ENDMDL
MODEL 8
REMARK VINA RESULT:    -7.057      3.519      7.186
REMARK INTER + INTRA:         -10.457
REMARK INTER:                  -9.100
REMARK INTRA:                  -1.357
REMARK UNBOUND:                -1.543
REMARK  Name = ABC
REMARK  9 active torsions:
REMARK  status: ('A' for Active; 'I' for Inactive)
REMARK    1  A    between atoms: O_5  and  C_37
REMARK    2  A    between atoms: N_8  and  C_21
REMARK    3  A    between atoms: C_12  and  C_17
REMARK    4  A    between atoms: C_19  and  C_26
REMARK    5  A    between atoms: C_24  and  C_25
REMARK    6  A    between atoms: C_25  and  C_30
REMARK    7  A    between atoms: C_25  and  C_31
REMARK    8  A    between atoms: C_28  and  C_34
REMARK    9  A    between atoms: C_29  and  C_33
REMARK                            x       y       z     vdW  Elec       q    Type
REMARK                         _______ _______ _______ _____ _____    ______ ____
ROOT
ATOM      1  F   UNL     1       3.016 -14.843  -1.079  0.00  0.00    -0.203 F 
ATOM      2  O   UNL     1       7.789  -9.136  -4.368  0.00  0.00    -0.271 OA
ATOM      3  O   UNL     1      -0.967  -8.416  -1.151  0.00  0.00    -0.244 OA
ATOM      4  N   UNL     1       3.388  -9.811  -2.070  0.00  0.00    -0.309 N 
ATOM      5  N   UNL     1       6.079  -9.349  -2.791  0.00  0.00    -0.295 N 
ATOM      6  N   UNL     1      -0.565 -10.656  -0.944  0.00  0.00    -0.242 N 
ATOM      7  N   UNL     1       1.128  -9.138  -1.583  0.00  0.00    -0.177 NA
ATOM      8  N   UNL     1      -0.063 -12.959  -0.699  0.00  0.00    -0.225 NA
ATOM      9  C   UNL     1       4.211  -8.963  -1.194  0.00  0.00    +0.089 C 
ATOM     10  C   UNL     1       5.392  -8.341  -1.970  0.00  0.00    +0.130 C 
ATOM     11  C   UNL     1       3.794 -10.080  -3.454  0.00  0.00    +0.126 C 
ATOM     12  C   UNL     1       5.299 -10.355  -3.530  0.00  0.00    +0.127 C 
ATOM     13  C   UNL     1       2.048 -10.132  -1.672  0.00  0.00    +0.138 A 
ATOM     14  C   UNL     1       4.701  -9.785   0.003  0.00  0.00    +0.029 C 
ATOM     15  C   UNL     1       1.669 -11.449  -1.369  0.00  0.00    +0.061 A 
ATOM     16  C   UNL     1       7.458  -9.143  -3.152  0.00  0.00    +0.239 C 
ATOM     17  C   UNL     1       0.328 -11.692  -1.007  0.00  0.00    +0.153 A 
ATOM     18  C   UNL     1      -0.157  -9.380  -1.223  0.00  0.00    +0.356 A 
ATOM     19  C   UNL     1       2.574 -12.524  -1.388  0.00  0.00    +0.055 A 
ATOM     20  C   UNL     1       2.139 -13.808  -1.056  0.00  0.00    +0.150 A 
ATOM     21  C   UNL     1       0.797 -14.011  -0.704  0.00  0.00    +0.115 A 
ENDROOT
BRANCH  21  23
ATOM     22  F   UNL     1       1.330 -15.160   1.810  0.00  0.00    -0.205 F 
ATOM     23  C   UNL     1       0.295 -15.349  -0.348  0.00  0.00    +0.080 A 
ATOM     24  C   UNL     1      -0.463 -16.122  -1.261  0.00  0.00    +0.129 A 
ATOM     25  C   UNL     1       0.595 -15.877   0.921  0.00  0.00    +0.136 A 
ATOM     26  C   UNL     1      -0.935 -17.382  -0.874  0.00  0.00    +0.046 A 
ATOM     27  C   UNL     1       0.119 -17.138   1.289  0.00  0.00    +0.039 A 
ATOM     28  C   UNL     1      -0.649 -17.888   0.395  0.00  0.00    +0.006 A 
BRANCH  24  29
ATOM     29  O   UNL     1      -0.740 -15.676  -2.556  0.00  0.00    -0.506 OA
ATOM     30  H   UNL     1      -0.147 -15.022  -3.051  0.00  0.00    +0.292 HD
ENDBRANCH  24  29
ENDBRANCH  21  23
BRANCH   6  32
ATOM     31  N   UNL     1      -4.218 -11.339  -1.127  0.00  0.00    -0.258 NA
ATOM     32  C   UNL     1      -1.930 -10.908  -0.554  0.00  0.00    +0.077 A 
ATOM     33  C   UNL     1      -2.934 -11.124  -1.530  0.00  0.00    +0.068 A 
ATOM     34  C   UNL     1      -2.287 -10.914   0.811  0.00  0.00    -0.023 A 
ATOM     35  C   UNL     1      -3.619 -11.151   1.172  0.00  0.00    +0.025 A 
ATOM     36  C   UNL     1      -1.253 -10.681   1.877  0.00  0.00    +0.046 C 
ATOM     37  C   UNL     1      -4.576 -11.360   0.182  0.00  0.00    +0.111 A 
BRANCH  33  38
ATOM     38  C   UNL     1      -2.631 -11.107  -3.016  0.00  0.00    +0.034 C 
ATOM     39  C   UNL     1      -2.381 -12.530  -3.526  0.00  0.00    +0.014 C 
ATOM     40  C   UNL     1      -3.779 -10.444  -3.786  0.00  0.00    +0.014 C 
ENDBRANCH  33  38
ENDBRANCH   6  32
BRANCH  16  41
ATOM     41  C   UNL     1       8.513  -8.933  -2.142  0.00  0.00    +0.060 C 
ATOM     42  C   UNL     1       8.318  -8.216  -1.039  0.00  0.00    +0.013 C 
ENDBRANCH  16  41
TORSDOF 5
ENDMDL
MODEL 9
REMARK VINA RESULT:    -7.010     23.146     26.884
REMARK INTER + INTRA:         -10.397
REMARK INTER:                  -8.571
REMARK INTRA:                  -1.826
REMARK UNBOUND:                -1.543
REMARK  Name = ABC
REMARK  9 active torsions:
REMARK  status: ('A' for Active; 'I' for Inactive)
REMARK    1  A    between atoms: O_5  and  C_37
REMARK    2  A    between atoms: N_8  and  C_21
REMARK    3  A    between atoms: C_12  and  C_17
REMARK    4  A    between atoms: C_19  and  C_26
REMARK    5  A    between atoms: C_24  and  C_25
REMARK    6  A    between atoms: C_25  and  C_30
REMARK    7  A    between atoms: C_25  and  C_31
REMARK    8  A    between atoms: C_28  and  C_34
REMARK    9  A    between atoms: C_29  and  C_33
REMARK                            x       y       z     vdW  Elec       q    Type
REMARK                         _______ _______ _______ _____ _____    ______ ____
ROOT
ATOM      1  F   UNL     1      18.704   2.541  -1.436  0.00  0.00    -0.203 F 
ATOM      2  O   UNL     1      22.077  -4.814  -0.601  0.00  0.00    -0.271 OA
ATOM      3  O   UNL     1      26.188   3.575  -1.105  0.00  0.00    -0.244 OA
ATOM      4  N   UNL     1      23.140   0.082  -0.587  0.00  0.00    -0.309 N 
ATOM      5  N   UNL     1      22.455  -2.592   0.010  0.00  0.00    -0.295 N 
ATOM      6  N   UNL     1      23.991   4.098  -1.458  0.00  0.00    -0.242 N 
ATOM      7  N   UNL     1      24.676   1.917  -0.862  0.00  0.00    -0.177 NA
ATOM      8  N   UNL     1      21.691   4.580  -1.758  0.00  0.00    -0.225 NA
ATOM      9  C   UNL     1      23.433  -0.431   0.760  0.00  0.00    +0.089 C 
ATOM     10  C   UNL     1      23.560  -1.969   0.756  0.00  0.00    +0.130 C 
ATOM     11  C   UNL     1      22.883  -0.836  -1.702  0.00  0.00    +0.126 C 
ATOM     12  C   UNL     1      21.986  -1.992  -1.251  0.00  0.00    +0.127 C 
ATOM     13  C   UNL     1      23.396   1.463  -0.879  0.00  0.00    +0.138 A 
ATOM     14  C   UNL     1      22.348   0.037   1.735  0.00  0.00    +0.029 C 
ATOM     15  C   UNL     1      22.354   2.354  -1.176  0.00  0.00    +0.061 A 
ATOM     16  C   UNL     1      22.075  -3.947   0.314  0.00  0.00    +0.239 C 
ATOM     17  C   UNL     1      22.684   3.692  -1.475  0.00  0.00    +0.153 A 
ATOM     18  C   UNL     1      24.982   3.208  -1.141  0.00  0.00    +0.356 A 
ATOM     19  C   UNL     1      21.001   1.974  -1.163  0.00  0.00    +0.055 A 
ATOM     20  C   UNL     1      20.009   2.914  -1.447  0.00  0.00    +0.150 A 
ATOM     21  C   UNL     1      20.377   4.235  -1.743  0.00  0.00    +0.115 A 
ENDROOT
BRANCH  21  23
ATOM     22  F   UNL     1      19.127   4.356  -4.262  0.00  0.00    -0.205 F 
ATOM     23  C   UNL     1      19.363   5.258  -2.050  0.00  0.00    +0.080 A 
ATOM     24  C   UNL     1      18.984   6.234  -1.097  0.00  0.00    +0.129 A 
ATOM     25  C   UNL     1      18.773   5.275  -3.327  0.00  0.00    +0.136 A 
ATOM     26  C   UNL     1      18.003   7.178  -1.426  0.00  0.00    +0.046 A 
ATOM     27  C   UNL     1      17.798   6.226  -3.640  0.00  0.00    +0.039 A 
ATOM     28  C   UNL     1      17.410   7.173  -2.689  0.00  0.00    +0.006 A 
BRANCH  24  29
ATOM     29  O   UNL     1      19.579   6.305   0.166  0.00  0.00    -0.506 OA
ATOM     30  H   UNL     1      20.100   5.538   0.572  0.00  0.00    +0.292 HD
ENDBRANCH  24  29
ENDBRANCH  21  23
BRANCH   6  32
ATOM     31  N   UNL     1      24.638   7.736  -1.023  0.00  0.00    -0.258 NA
ATOM     32  C   UNL     1      24.321   5.472  -1.745  0.00  0.00    +0.077 A 
ATOM     33  C   UNL     1      24.342   6.442  -0.714  0.00  0.00    +0.068 A 
ATOM     34  C   UNL     1      24.599   5.871  -3.069  0.00  0.00    -0.023 A 
ATOM     35  C   UNL     1      24.909   7.212  -3.332  0.00  0.00    +0.025 A 
ATOM     36  C   UNL     1      24.579   4.873  -4.194  0.00  0.00    +0.046 C 
ATOM     37  C   UNL     1      24.920   8.135  -2.289  0.00  0.00    +0.111 A 
BRANCH  33  38
ATOM     38  C   UNL     1      24.028   6.094   0.729  0.00  0.00    +0.034 C 
ATOM     39  C   UNL     1      25.323   5.874   1.519  0.00  0.00    +0.014 C 
ATOM     40  C   UNL     1      23.177   7.196   1.370  0.00  0.00    +0.014 C 
ENDBRANCH  33  38
ENDBRANCH   6  32
BRANCH  16  41
ATOM     41  C   UNL     1      21.683  -4.369   1.672  0.00  0.00    +0.060 C 
ATOM     42  C   UNL     1      20.800  -3.697   2.406  0.00  0.00    +0.013 C 
ENDBRANCH  16  41
TORSDOF 5
ENDMDL
MODEL 10
REMARK VINA RESULT:    -6.977      2.871      3.768
REMARK INTER + INTRA:         -10.356
REMARK INTER:                  -8.662
REMARK INTRA:                  -1.694
REMARK UNBOUND:                -1.543
REMARK  Name = ABC
REMARK  9 active torsions:
REMARK  status: ('A' for Active; 'I' for Inactive)
REMARK    1  A    between atoms: O_5  and  C_37
REMARK    2  A    between atoms: N_8  and  C_21
REMARK    3  A    between atoms: C_12  and  C_17
REMARK    4  A    between atoms: C_19  and  C_26
REMARK    5  A    between atoms: C_24  and  C_25
REMARK    6  A    between atoms: C_25  and  C_30
REMARK    7  A    between atoms: C_25  and  C_31
REMARK    8  A    between atoms: C_28  and  C_34
REMARK    9  A    between atoms: C_29  and  C_33
REMARK                            x       y       z     vdW  Elec       q    Type
REMARK                         _______ _______ _______ _____ _____    ______ ____
ROOT
ATOM      1  F   UNL     1       4.800 -11.643  -3.130  0.00  0.00    -0.203 F 
ATOM      2  O   UNL     1       5.668 -19.728  -3.335  0.00  0.00    -0.271 OA
ATOM      3  O   UNL     1      -1.369 -14.602   0.090  0.00  0.00    -0.244 OA
ATOM      4  N   UNL     1       2.403 -16.098  -2.210  0.00  0.00    -0.309 N 
ATOM      5  N   UNL     1       3.989 -18.106  -3.405  0.00  0.00    -0.295 N 
ATOM      6  N   UNL     1       0.139 -12.996  -0.518  0.00  0.00    -0.242 N 
ATOM      7  N   UNL     1       0.471 -15.279  -1.028  0.00  0.00    -0.177 NA
ATOM      8  N   UNL     1       1.720 -11.379  -1.226  0.00  0.00    -0.225 NA
ATOM      9  C   UNL     1       1.838 -16.859  -3.336  0.00  0.00    +0.089 C 
ATOM     10  C   UNL     1       2.526 -18.233  -3.481  0.00  0.00    +0.130 C 
ATOM     11  C   UNL     1       3.561 -16.605  -1.466  0.00  0.00    +0.126 C 
ATOM     12  C   UNL     1       4.601 -17.194  -2.423  0.00  0.00    +0.127 C 
ATOM     13  C   UNL     1       1.648 -15.014  -1.651  0.00  0.00    +0.138 A 
ATOM     14  C   UNL     1       1.958 -16.036  -4.622  0.00  0.00    +0.029 C 
ATOM     15  C   UNL     1       2.096 -13.687  -1.740  0.00  0.00    +0.061 A 
ATOM     16  C   UNL     1       4.817 -19.107  -4.027  0.00  0.00    +0.239 C 
ATOM     17  C   UNL     1       1.312 -12.676  -1.147  0.00  0.00    +0.153 A 
ATOM     18  C   UNL     1      -0.281 -14.298  -0.471  0.00  0.00    +0.356 A 
ATOM     19  C   UNL     1       3.277 -13.327  -2.412  0.00  0.00    +0.055 A 
ATOM     20  C   UNL     1       3.658 -11.986  -2.482  0.00  0.00    +0.150 A 
ATOM     21  C   UNL     1       2.853 -11.008  -1.878  0.00  0.00    +0.115 A 
ENDROOT
BRANCH  21  23
ATOM     22  F   UNL     1       4.808  -9.933  -0.162  0.00  0.00    -0.205 F 
ATOM     23  C   UNL     1       3.219  -9.583  -1.926  0.00  0.00    +0.080 A 
ATOM     24  C   UNL     1       2.592  -8.688  -2.827  0.00  0.00    +0.129 A 
ATOM     25  C   UNL     1       4.200  -9.097  -1.043  0.00  0.00    +0.136 A 
ATOM     26  C   UNL     1       2.983  -7.344  -2.851  0.00  0.00    +0.046 A 
ATOM     27  C   UNL     1       4.576  -7.752  -1.078  0.00  0.00    +0.039 A 
ATOM     28  C   UNL     1       3.972  -6.877  -1.984  0.00  0.00    +0.006 A 
BRANCH  24  29
ATOM     29  O   UNL     1       1.568  -9.100  -3.685  0.00  0.00    -0.506 OA
ATOM     30  H   UNL     1       0.949  -9.871  -3.473  0.00  0.00    +0.292 HD
ENDBRANCH  24  29
ENDBRANCH  21  23
BRANCH   6  32
ATOM     31  N   UNL     1      -2.432 -10.341  -0.097  0.00  0.00    -0.258 NA
ATOM     32  C   UNL     1      -0.669 -11.955   0.069  0.00  0.00    +0.077 A 
ATOM     33  C   UNL     1      -1.701 -11.334  -0.675  0.00  0.00    +0.068 A 
ATOM     34  C   UNL     1      -0.417 -11.524   1.388  0.00  0.00    -0.023 A 
ATOM     35  C   UNL     1      -1.206 -10.506   1.939  0.00  0.00    +0.025 A 
ATOM     36  C   UNL     1       0.676 -12.152   2.208  0.00  0.00    +0.046 C 
ATOM     37  C   UNL     1      -2.212  -9.921   1.175  0.00  0.00    +0.111 A 
BRANCH  33  38
ATOM     38  C   UNL     1      -2.013 -11.728  -2.107  0.00  0.00    +0.034 C 
ATOM     39  C   UNL     1      -3.331 -12.507  -2.172  0.00  0.00    +0.014 C 
ATOM     40  C   UNL     1      -2.069 -10.483  -3.000  0.00  0.00    +0.014 C 
ENDBRANCH  33  38
ENDBRANCH   6  32
BRANCH  16  41
ATOM     41  C   UNL     1       4.704 -19.443  -5.458  0.00  0.00    +0.060 C 
ATOM     42  C   UNL     1       5.740 -19.394  -6.291  0.00  0.00    +0.013 C 
ENDBRANCH  16  41
TORSDOF 5
ENDMDL
MODEL 11
REMARK VINA RESULT:    -6.952     23.736     27.266
REMARK INTER + INTRA:         -10.324
REMARK INTER:                  -8.510
REMARK INTRA:                  -1.813
REMARK UNBOUND:                -1.543
REMARK  Name = ABC
REMARK  9 active torsions:
REMARK  status: ('A' for Active; 'I' for Inactive)
REMARK    1  A    between atoms: O_5  and  C_37
REMARK    2  A    between atoms: N_8  and  C_21
REMARK    3  A    between atoms: C_12  and  C_17
REMARK    4  A    between atoms: C_19  and  C_26
REMARK    5  A    between atoms: C_24  and  C_25
REMARK    6  A    between atoms: C_25  and  C_30
REMARK    7  A    between atoms: C_25  and  C_31
REMARK    8  A    between atoms: C_28  and  C_34
REMARK    9  A    between atoms: C_29  and  C_33
REMARK                            x       y       z     vdW  Elec       q    Type
REMARK                         _______ _______ _______ _____ _____    ______ ____
ROOT
ATOM      1  F   UNL     1      18.996   2.545  -1.883  0.00  0.00    -0.203 F 
ATOM      2  O   UNL     1      23.420  -4.230  -1.046  0.00  0.00    -0.271 OA
ATOM      3  O   UNL     1      26.010   4.707  -0.064  0.00  0.00    -0.244 OA
ATOM      4  N   UNL     1      23.584   0.739  -0.423  0.00  0.00    -0.309 N 
ATOM      5  N   UNL     1      23.290  -2.060  -0.191  0.00  0.00    -0.295 N 
ATOM      6  N   UNL     1      23.849   4.912  -0.779  0.00  0.00    -0.242 N 
ATOM      7  N   UNL     1      24.795   2.813  -0.250  0.00  0.00    -0.177 NA
ATOM      8  N   UNL     1      21.585   5.055  -1.466  0.00  0.00    -0.225 NA
ATOM      9  C   UNL     1      23.728   0.129   0.908  0.00  0.00    +0.089 C 
ATOM     10  C   UNL     1      24.122  -1.359   0.798  0.00  0.00    +0.130 C 
ATOM     11  C   UNL     1      23.687  -0.074  -1.639  0.00  0.00    +0.126 C 
ATOM     12  C   UNL     1      22.945  -1.403  -1.463  0.00  0.00    +0.127 C 
ATOM     13  C   UNL     1      23.638   2.168  -0.545  0.00  0.00    +0.138 A 
ATOM     14  C   UNL     1      22.426   0.304   1.696  0.00  0.00    +0.029 C 
ATOM     15  C   UNL     1      22.521   2.910  -0.957  0.00  0.00    +0.061 A 
ATOM     16  C   UNL     1      23.108  -3.484  -0.078  0.00  0.00    +0.239 C 
ATOM     17  C   UNL     1      22.656   4.309  -1.076  0.00  0.00    +0.153 A 
ATOM     18  C   UNL     1      24.912   4.160  -0.357  0.00  0.00    +0.356 A 
ATOM     19  C   UNL     1      21.275   2.322  -1.231  0.00  0.00    +0.055 A 
ATOM     20  C   UNL     1      20.197   3.119  -1.617  0.00  0.00    +0.150 A 
ATOM     21  C   UNL     1      20.370   4.506  -1.727  0.00  0.00    +0.115 A 
ENDROOT
BRANCH  21  23
ATOM     22  F   UNL     1      19.360   4.479  -4.354  0.00  0.00    -0.205 F 
ATOM     23  C   UNL     1      19.260   5.384  -2.133  0.00  0.00    +0.080 A 
ATOM     24  C   UNL     1      18.663   6.290  -1.224  0.00  0.00    +0.129 A 
ATOM     25  C   UNL     1      18.796   5.332  -3.460  0.00  0.00    +0.136 A 
ATOM     26  C   UNL     1      17.597   7.094  -1.648  0.00  0.00    +0.046 A 
ATOM     27  C   UNL     1      17.735   6.144  -3.868  0.00  0.00    +0.039 A 
ATOM     28  C   UNL     1      17.132   7.020  -2.963  0.00  0.00    +0.006 A 
BRANCH  24  29
ATOM     29  O   UNL     1      19.120   6.430   0.089  0.00  0.00    -0.506 OA
ATOM     30  H   UNL     1      19.447   5.649   0.643  0.00  0.00    +0.292 HD
ENDBRANCH  24  29
ENDBRANCH  21  23
BRANCH   6  32
ATOM     31  N   UNL     1      24.556   8.301  -2.140  0.00  0.00    -0.258 NA
ATOM     32  C   UNL     1      23.975   6.345  -0.883  0.00  0.00    +0.077 A 
ATOM     33  C   UNL     1      24.430   6.946  -2.082  0.00  0.00    +0.068 A 
ATOM     34  C   UNL     1      23.672   7.164   0.224  0.00  0.00    -0.023 A 
ATOM     35  C   UNL     1      23.808   8.554   0.108  0.00  0.00    +0.025 A 
ATOM     36  C   UNL     1      23.194   6.564   1.517  0.00  0.00    +0.046 C 
ATOM     37  C   UNL     1      24.258   9.105  -1.088  0.00  0.00    +0.111 A 
BRANCH  33  38
ATOM     38  C   UNL     1      24.798   6.129  -3.306  0.00  0.00    +0.034 C 
ATOM     39  C   UNL     1      23.637   6.109  -4.305  0.00  0.00    +0.014 C 
ATOM     40  C   UNL     1      26.070   6.687  -3.955  0.00  0.00    +0.014 C 
ENDBRANCH  33  38
ENDBRANCH   6  32
BRANCH  16  41
ATOM     41  C   UNL     1      22.570  -4.115   1.141  0.00  0.00    +0.060 C 
ATOM     42  C   UNL     1      21.456  -3.696   1.735  0.00  0.00    +0.013 C 
ENDBRANCH  16  41
TORSDOF 5
ENDMDL
MODEL 12
REMARK VINA RESULT:    -6.901      3.652      8.870
REMARK INTER + INTRA:         -10.260
REMARK INTER:                  -8.504
REMARK INTRA:                  -1.756
REMARK UNBOUND:                -1.543
REMARK  Name = ABC
REMARK  9 active torsions:
REMARK  status: ('A' for Active; 'I' for Inactive)
REMARK    1  A    between atoms: O_5  and  C_37
REMARK    2  A    between atoms: N_8  and  C_21
REMARK    3  A    between atoms: C_12  and  C_17
REMARK    4  A    between atoms: C_19  and  C_26
REMARK    5  A    between atoms: C_24  and  C_25
REMARK    6  A    between atoms: C_25  and  C_30
REMARK    7  A    between atoms: C_25  and  C_31
REMARK    8  A    between atoms: C_28  and  C_34
REMARK    9  A    between atoms: C_29  and  C_33
REMARK                            x       y       z     vdW  Elec       q    Type
REMARK                         _______ _______ _______ _____ _____    ______ ____
ROOT
ATOM      1  F   UNL     1      -2.803 -14.193   1.987  0.00  0.00    -0.203 F 
ATOM      2  O   UNL     1      -6.537  -7.119   3.463  0.00  0.00    -0.271 OA
ATOM      3  O   UNL     1       0.389  -9.035  -2.528  0.00  0.00    -0.244 OA
ATOM      4  N   UNL     1      -3.213  -9.312   0.422  0.00  0.00    -0.309 N 
ATOM      5  N   UNL     1      -5.496  -8.262   1.713  0.00  0.00    -0.295 N 
ATOM      6  N   UNL     1       0.128 -11.030  -1.446  0.00  0.00    -0.242 N 
ATOM      7  N   UNL     1      -1.343  -9.217  -1.092  0.00  0.00    -0.177 NA
ATOM      8  N   UNL     1      -0.233 -13.088  -0.328  0.00  0.00    -0.225 NA
ATOM      9  C   UNL     1      -4.364  -8.914  -0.404  0.00  0.00    +0.089 C 
ATOM     10  C   UNL     1      -5.235  -7.867   0.320  0.00  0.00    +0.130 C 
ATOM     11  C   UNL     1      -3.072  -8.825   1.798  0.00  0.00    +0.126 C 
ATOM     12  C   UNL     1      -4.420  -8.859   2.523  0.00  0.00    +0.127 C 
ATOM     13  C   UNL     1      -2.083  -9.932  -0.207  0.00  0.00    +0.138 A 
ATOM     14  C   UNL     1      -5.180 -10.156  -0.779  0.00  0.00    +0.029 C 
ATOM     15  C   UNL     1      -1.730 -11.262   0.068  0.00  0.00    +0.061 A 
ATOM     16  C   UNL     1      -6.666  -7.756   2.383  0.00  0.00    +0.239 C 
ATOM     17  C   UNL     1      -0.593 -11.797  -0.571  0.00  0.00    +0.153 A 
ATOM     18  C   UNL     1      -0.258  -9.744  -1.710  0.00  0.00    +0.356 A 
ATOM     19  C   UNL     1      -2.475 -12.083   0.932  0.00  0.00    +0.055 A 
ATOM     20  C   UNL     1      -2.082 -13.405   1.149  0.00  0.00    +0.150 A 
ATOM     21  C   UNL     1      -0.943 -13.901   0.497  0.00  0.00    +0.115 A 
ENDROOT
BRANCH  21  23
ATOM     22  F   UNL     1       0.095 -14.766   2.966  0.00  0.00    -0.205 F 
ATOM     23  C   UNL     1      -0.493 -15.289   0.699  0.00  0.00    +0.080 A 
ATOM     24  C   UNL     1      -0.549 -16.243  -0.345  0.00  0.00    +0.129 A 
ATOM     25  C   UNL     1       0.022 -15.666   1.952  0.00  0.00    +0.136 A 
ATOM     26  C   UNL     1      -0.126 -17.557  -0.104  0.00  0.00    +0.046 A 
ATOM     27  C   UNL     1       0.442 -16.980   2.175  0.00  0.00    +0.039 A 
ATOM     28  C   UNL     1       0.364 -17.925   1.149  0.00  0.00    +0.006 A 
BRANCH  24  29
ATOM     29  O   UNL     1      -0.993 -15.912  -1.628  0.00  0.00    -0.506 OA
ATOM     30  H   UNL     1      -0.740 -16.442  -2.452  0.00  0.00    +0.292 HD
ENDBRANCH  24  29
ENDBRANCH  21  23
BRANCH   6  32
ATOM     31  N   UNL     1       3.649 -11.912  -2.262  0.00  0.00    -0.258 NA
ATOM     32  C   UNL     1       1.279 -11.590  -2.112  0.00  0.00    +0.077 A 
ATOM     33  C   UNL     1       2.583 -11.386  -1.597  0.00  0.00    +0.068 A 
ATOM     34  C   UNL     1       1.118 -12.325  -3.304  0.00  0.00    -0.023 A 
ATOM     35  C   UNL     1       2.247 -12.854  -3.943  0.00  0.00    +0.025 A 
ATOM     36  C   UNL     1      -0.249 -12.557  -3.887  0.00  0.00    +0.046 C 
ATOM     37  C   UNL     1       3.512 -12.632  -3.404  0.00  0.00    +0.111 A 
BRANCH  33  38
ATOM     38  C   UNL     1       2.836 -10.585  -0.334  0.00  0.00    +0.034 C 
ATOM     39  C   UNL     1       2.936 -11.517   0.878  0.00  0.00    +0.014 C 
ATOM     40  C   UNL     1       4.109  -9.744  -0.484  0.00  0.00    +0.014 C 
ENDBRANCH  33  38
ENDBRANCH   6  32
BRANCH  16  41
ATOM     41  C   UNL     1      -8.025  -7.950   1.846  0.00  0.00    +0.060 C 
ATOM     42  C   UNL     1      -8.524  -9.152   1.570  0.00  0.00    +0.013 C 
ENDBRANCH  16  41
TORSDOF 5
ENDMDL
MODEL 13
REMARK VINA RESULT:    -6.874      2.971      3.544
REMARK INTER + INTRA:         -10.226
REMARK INTER:                  -8.567
REMARK INTRA:                  -1.658
REMARK UNBOUND:                -1.543
REMARK  Name = ABC
REMARK  9 active torsions:
REMARK  status: ('A' for Active; 'I' for Inactive)
REMARK    1  A    between atoms: O_5  and  C_37
REMARK    2  A    between atoms: N_8  and  C_21
REMARK    3  A    between atoms: C_12  and  C_17
REMARK    4  A    between atoms: C_19  and  C_26
REMARK    5  A    between atoms: C_24  and  C_25
REMARK    6  A    between atoms: C_25  and  C_30
REMARK    7  A    between atoms: C_25  and  C_31
REMARK    8  A    between atoms: C_28  and  C_34
REMARK    9  A    between atoms: C_29  and  C_33
REMARK                            x       y       z     vdW  Elec       q    Type
REMARK                         _______ _______ _______ _____ _____    ______ ____
ROOT
ATOM      1  F   UNL     1       4.747 -11.953  -3.278  0.00  0.00    -0.203 F 
ATOM      2  O   UNL     1       5.865 -19.999  -3.693  0.00  0.00    -0.271 OA
ATOM      3  O   UNL     1      -1.372 -15.186  -0.230  0.00  0.00    -0.244 OA
ATOM      4  N   UNL     1       2.475 -16.503  -2.516  0.00  0.00    -0.309 N 
ATOM      5  N   UNL     1       4.139 -18.427  -3.743  0.00  0.00    -0.295 N 
ATOM      6  N   UNL     1       0.095 -13.519  -0.772  0.00  0.00    -0.242 N 
ATOM      7  N   UNL     1       0.504 -15.775  -1.340  0.00  0.00    -0.177 NA
ATOM      8  N   UNL     1       1.635 -11.836  -1.412  0.00  0.00    -0.225 NA
ATOM      9  C   UNL     1       1.949 -17.248  -3.670  0.00  0.00    +0.089 C 
ATOM     10  C   UNL     1       2.681 -18.596  -3.843  0.00  0.00    +0.130 C 
ATOM     11  C   UNL     1       3.638 -16.995  -1.769  0.00  0.00    +0.126 C 
ATOM     12  C   UNL     1       4.708 -17.525  -2.727  0.00  0.00    +0.127 C 
ATOM     13  C   UNL     1       1.680 -15.458  -1.939  0.00  0.00    +0.138 A 
ATOM     14  C   UNL     1       2.061 -16.386  -4.931  0.00  0.00    +0.029 C 
ATOM     15  C   UNL     1       2.089 -14.116  -1.984  0.00  0.00    +0.061 A 
ATOM     16  C   UNL     1       5.005 -19.385  -4.380  0.00  0.00    +0.239 C 
ATOM     17  C   UNL     1       1.266 -13.146  -1.375  0.00  0.00    +0.153 A 
ATOM     18  C   UNL     1      -0.286 -14.834  -0.767  0.00  0.00    +0.356 A 
ATOM     19  C   UNL     1       3.266 -13.701  -2.629  0.00  0.00    +0.055 A 
ATOM     20  C   UNL     1       3.607 -12.348  -2.656  0.00  0.00    +0.150 A 
ATOM     21  C   UNL     1       2.765 -11.413  -2.037  0.00  0.00    +0.115 A 
ENDROOT
BRANCH  21  23
ATOM     22  F   UNL     1       4.572 -10.307  -0.184  0.00  0.00    -0.205 F 
ATOM     23  C   UNL     1       3.087  -9.976  -2.041  0.00  0.00    +0.080 A 
ATOM     24  C   UNL     1       2.491  -9.086  -2.966  0.00  0.00    +0.129 A 
ATOM     25  C   UNL     1       3.994  -9.475  -1.089  0.00  0.00    +0.136 A 
ATOM     26  C   UNL     1       2.840  -7.730  -2.946  0.00  0.00    +0.046 A 
ATOM     27  C   UNL     1       4.329  -8.119  -1.080  0.00  0.00    +0.039 A 
ATOM     28  C   UNL     1       3.756  -7.248  -2.010  0.00  0.00    +0.006 A 
BRANCH  24  29
ATOM     29  O   UNL     1       1.538  -9.514  -3.895  0.00  0.00    -0.506 OA
ATOM     30  H   UNL     1       0.931 -10.307  -3.734  0.00  0.00    +0.292 HD
ENDBRANCH  24  29
ENDBRANCH  21  23
BRANCH   6  32
ATOM     31  N   UNL     1      -1.474 -11.282   1.753  0.00  0.00    -0.258 NA
ATOM     32  C   UNL     1      -0.752 -12.520  -0.169  0.00  0.00    +0.077 A 
ATOM     33  C   UNL     1      -0.645 -12.217   1.211  0.00  0.00    +0.068 A 
ATOM     34  C   UNL     1      -1.721 -11.851  -0.945  0.00  0.00    -0.023 A 
ATOM     35  C   UNL     1      -2.542 -10.890  -0.341  0.00  0.00    +0.025 A 
ATOM     36  C   UNL     1      -1.873 -12.150  -2.411  0.00  0.00    +0.046 C 
ATOM     37  C   UNL     1      -2.404 -10.621   1.018  0.00  0.00    +0.111 A 
BRANCH  33  38
ATOM     38  C   UNL     1       0.356 -12.913   2.114  0.00  0.00    +0.034 C 
ATOM     39  C   UNL     1       1.022 -11.901   3.052  0.00  0.00    +0.014 C 
ATOM     40  C   UNL     1      -0.332 -14.027   2.910  0.00  0.00    +0.014 C 
ENDBRANCH  33  38
ENDBRANCH   6  32
BRANCH  16  41
ATOM     41  C   UNL     1       4.922 -19.684  -5.822  0.00  0.00    +0.060 C 
ATOM     42  C   UNL     1       4.485 -20.850  -6.289  0.00  0.00    +0.013 C 
ENDBRANCH  16  41
TORSDOF 5
ENDMDL
MODEL 14
REMARK VINA RESULT:    -6.844      3.312      7.361
REMARK INTER + INTRA:         -10.188
REMARK INTER:                  -9.252
REMARK INTRA:                  -0.935
REMARK UNBOUND:                -1.543
REMARK  Name = ABC
REMARK  9 active torsions:
REMARK  status: ('A' for Active; 'I' for Inactive)
REMARK    1  A    between atoms: O_5  and  C_37
REMARK    2  A    between atoms: N_8  and  C_21
REMARK    3  A    between atoms: C_12  and  C_17
REMARK    4  A    between atoms: C_19  and  C_26
REMARK    5  A    between atoms: C_24  and  C_25
REMARK    6  A    between atoms: C_25  and  C_30
REMARK    7  A    between atoms: C_25  and  C_31
REMARK    8  A    between atoms: C_28  and  C_34
REMARK    9  A    between atoms: C_29  and  C_33
REMARK                            x       y       z     vdW  Elec       q    Type
REMARK                         _______ _______ _______ _____ _____    ______ ____
ROOT
ATOM      1  F   UNL     1      -0.452  -6.074  -1.838  0.00  0.00    -0.203 F 
ATOM      2  O   UNL     1      -8.475  -7.343  -2.264  0.00  0.00    -0.271 OA
ATOM      3  O   UNL     1      -1.645 -13.285   0.101  0.00  0.00    -0.244 OA
ATOM      4  N   UNL     1      -4.173  -9.478  -0.835  0.00  0.00    -0.309 N 
ATOM      5  N   UNL     1      -6.610  -8.068  -1.059  0.00  0.00    -0.295 N 
ATOM      6  N   UNL     1      -0.469 -11.422  -0.505  0.00  0.00    -0.242 N 
ATOM      7  N   UNL     1      -2.827 -11.416  -0.358  0.00  0.00    -0.177 NA
ATOM      8  N   UNL     1       0.689  -9.438  -1.090  0.00  0.00    -0.225 NA
ATOM      9  C   UNL     1      -4.998  -9.309   0.372  0.00  0.00    +0.089 C 
ATOM     10  C   UNL     1      -6.478  -9.073   0.007  0.00  0.00    +0.130 C 
ATOM     11  C   UNL     1      -4.749  -9.292  -2.171  0.00  0.00    +0.126 C 
ATOM     12  C   UNL     1      -5.671  -8.070  -2.194  0.00  0.00    +0.127 C 
ATOM     13  C   UNL     1      -2.890 -10.110  -0.721  0.00  0.00    +0.138 A 
ATOM     14  C   UNL     1      -4.441  -8.159   1.217  0.00  0.00    +0.029 C 
ATOM     15  C   UNL     1      -1.702  -9.406  -0.971  0.00  0.00    +0.061 A 
ATOM     16  C   UNL     1      -7.836  -7.321  -1.178  0.00  0.00    +0.239 C 
ATOM     17  C   UNL     1      -0.480 -10.100  -0.861  0.00  0.00    +0.153 A 
ATOM     18  C   UNL     1      -1.645 -12.072  -0.245  0.00  0.00    +0.356 A 
ATOM     19  C   UNL     1      -1.682  -8.040  -1.301  0.00  0.00    +0.055 A 
ATOM     20  C   UNL     1      -0.465  -7.393  -1.517  0.00  0.00    +0.150 A 
ATOM     21  C   UNL     1       0.731  -8.117  -1.402  0.00  0.00    +0.115 A 
ENDROOT
BRANCH  21  23
ATOM     22  F   UNL     1       1.341  -5.606  -0.285  0.00  0.00    -0.205 F 
ATOM     23  C   UNL     1       2.036  -7.473  -1.624  0.00  0.00    +0.080 A 
ATOM     24  C   UNL     1       3.035  -8.082  -2.422  0.00  0.00    +0.129 A 
ATOM     25  C   UNL     1       2.287  -6.216  -1.045  0.00  0.00    +0.136 A 
ATOM     26  C   UNL     1       4.269  -7.443  -2.592  0.00  0.00    +0.046 A 
ATOM     27  C   UNL     1       3.523  -5.590  -1.228  0.00  0.00    +0.039 A 
ATOM     28  C   UNL     1       4.515  -6.204  -1.996  0.00  0.00    +0.006 A 
BRANCH  24  29
ATOM     29  O   UNL     1       2.822  -9.301  -3.072  0.00  0.00    -0.506 OA
ATOM     30  H   UNL     1       1.994  -9.864  -2.925  0.00  0.00    +0.292 HD
ENDBRANCH  24  29
ENDBRANCH  21  23
BRANCH   6  32
ATOM     31  N   UNL     1       2.565 -13.409  -1.335  0.00  0.00    -0.258 NA
ATOM     32  C   UNL     1       0.786 -12.120  -0.375  0.00  0.00    +0.077 A 
ATOM     33  C   UNL     1       1.389 -12.740  -1.497  0.00  0.00    +0.068 A 
ATOM     34  C   UNL     1       1.414 -12.219   0.884  0.00  0.00    -0.023 A 
ATOM     35  C   UNL     1       2.629 -12.909   0.994  0.00  0.00    +0.025 A 
ATOM     36  C   UNL     1       0.802 -11.582   2.101  0.00  0.00    +0.046 C 
ATOM     37  C   UNL     1       3.189 -13.503  -0.133  0.00  0.00    +0.111 A 
BRANCH  33  38
ATOM     38  C   UNL     1       0.761 -12.698  -2.877  0.00  0.00    +0.034 C 
ATOM     39  C   UNL     1       1.843 -12.564  -3.953  0.00  0.00    +0.014 C 
ATOM     40  C   UNL     1      -0.092 -13.950  -3.111  0.00  0.00    +0.014 C 
ENDBRANCH  33  38
ENDBRANCH   6  32
BRANCH  16  41
ATOM     41  C   UNL     1      -8.384  -6.526  -0.064  0.00  0.00    +0.060 C 
ATOM     42  C   UNL     1      -9.460  -6.899   0.624  0.00  0.00    +0.013 C 
ENDBRANCH  16  41
TORSDOF 5
ENDMDL
MODEL 15
REMARK VINA RESULT:    -6.833      2.687      7.249
REMARK INTER + INTRA:         -10.174
REMARK INTER:                  -8.749
REMARK INTRA:                  -1.425
REMARK UNBOUND:                -1.543
REMARK  Name = ABC
REMARK  9 active torsions:
REMARK  status: ('A' for Active; 'I' for Inactive)
REMARK    1  A    between atoms: O_5  and  C_37
REMARK    2  A    between atoms: N_8  and  C_21
REMARK    3  A    between atoms: C_12  and  C_17
REMARK    4  A    between atoms: C_19  and  C_26
REMARK    5  A    between atoms: C_24  and  C_25
REMARK    6  A    between atoms: C_25  and  C_30
REMARK    7  A    between atoms: C_25  and  C_31
REMARK    8  A    between atoms: C_28  and  C_34
REMARK    9  A    between atoms: C_29  and  C_33
REMARK                            x       y       z     vdW  Elec       q    Type
REMARK                         _______ _______ _______ _____ _____    ______ ____
ROOT
ATOM      1  F   UNL     1       0.751  -7.967  -1.058  0.00  0.00    -0.203 F 
ATOM      2  O   UNL     1      -7.370  -8.333  -0.785  0.00  0.00    -0.271 OA
ATOM      3  O   UNL     1      -1.143 -15.267  -1.607  0.00  0.00    -0.244 OA
ATOM      4  N   UNL     1      -3.251 -11.185  -0.799  0.00  0.00    -0.309 N 
ATOM      5  N   UNL     1      -5.501  -9.594  -0.178  0.00  0.00    -0.295 N 
ATOM      6  N   UNL     1       0.193 -13.414  -1.682  0.00  0.00    -0.242 N 
ATOM      7  N   UNL     1      -2.119 -13.269  -1.219  0.00  0.00    -0.177 NA
ATOM      8  N   UNL     1       1.527 -11.456  -1.694  0.00  0.00    -0.225 NA
ATOM      9  C   UNL     1      -3.923 -11.397   0.493  0.00  0.00    +0.089 C 
ATOM     10  C   UNL     1      -5.391 -10.923   0.441  0.00  0.00    +0.130 C 
ATOM     11  C   UNL     1      -3.929 -10.482  -1.893  0.00  0.00    +0.126 C 
ATOM     12  C   UNL     1      -4.688  -9.263  -1.361  0.00  0.00    +0.127 C 
ATOM     13  C   UNL     1      -2.053 -11.919  -1.090  0.00  0.00    +0.138 A 
ATOM     14  C   UNL     1      -3.144 -10.680   1.600  0.00  0.00    +0.029 C 
ATOM     15  C   UNL     1      -0.817 -11.273  -1.242  0.00  0.00    +0.061 A 
ATOM     16  C   UNL     1      -6.628  -8.757   0.141  0.00  0.00    +0.239 C 
ATOM     17  C   UNL     1       0.313 -12.057  -1.551  0.00  0.00    +0.153 A 
ATOM     18  C   UNL     1      -1.024 -14.016  -1.505  0.00  0.00    +0.356 A 
ATOM     19  C   UNL     1      -0.658  -9.886  -1.074  0.00  0.00    +0.055 A 
ATOM     20  C   UNL     1       0.604  -9.307  -1.218  0.00  0.00    +0.150 A 
ATOM     21  C   UNL     1       1.704 -10.119  -1.528  0.00  0.00    +0.115 A 
ENDROOT
BRANCH  21  23
ATOM     22  F   UNL     1       3.678 -10.426   0.454  0.00  0.00    -0.205 F 
ATOM     23  C   UNL     1       3.052  -9.548  -1.691  0.00  0.00    +0.080 A 
ATOM     24  C   UNL     1       3.408  -8.808  -2.843  0.00  0.00    +0.129 A 
ATOM     25  C   UNL     1       3.999  -9.729  -0.667  0.00  0.00    +0.136 A 
ATOM     26  C   UNL     1       4.706  -8.298  -2.964  0.00  0.00    +0.046 A 
ATOM     27  C   UNL     1       5.290  -9.210  -0.802  0.00  0.00    +0.039 A 
ATOM     28  C   UNL     1       5.644  -8.500  -1.951  0.00  0.00    +0.006 A 
BRANCH  24  29
ATOM     29  O   UNL     1       2.491  -8.544  -3.865  0.00  0.00    -0.506 OA
ATOM     30  H   UNL     1       1.528  -8.292  -3.688  0.00  0.00    +0.292 HD
ENDBRANCH  24  29
ENDBRANCH  21  23
BRANCH   6  32
ATOM     31  N   UNL     1       2.746 -15.370  -3.552  0.00  0.00    -0.258 NA
ATOM     32  C   UNL     1       1.356 -14.213  -1.979  0.00  0.00    +0.077 A 
ATOM     33  C   UNL     1       1.650 -14.598  -3.310  0.00  0.00    +0.068 A 
ATOM     34  C   UNL     1       2.202 -14.646  -0.936  0.00  0.00    -0.023 A 
ATOM     35  C   UNL     1       3.323 -15.429  -1.241  0.00  0.00    +0.025 A 
ATOM     36  C   UNL     1       1.919 -14.266   0.491  0.00  0.00    +0.046 C 
ATOM     37  C   UNL     1       3.577 -15.785  -2.563  0.00  0.00    +0.111 A 
BRANCH  33  38
ATOM     38  C   UNL     1       0.773 -14.192  -4.480  0.00  0.00    +0.034 C 
ATOM     39  C   UNL     1       1.085 -12.754  -4.907  0.00  0.00    +0.014 C 
ATOM     40  C   UNL     1       0.964 -15.163  -5.650  0.00  0.00    +0.014 C 
ENDBRANCH  33  38
ENDBRANCH   6  32
BRANCH  16  41
ATOM     41  C   UNL     1      -6.957  -8.376   1.527  0.00  0.00    +0.060 C 
ATOM     42  C   UNL     1      -6.038  -7.967   2.397  0.00  0.00    +0.013 C 
ENDBRANCH  16  41
TORSDOF 5
ENDMDL
MODEL 16
REMARK VINA RESULT:    -6.747     18.056     22.778
REMARK INTER + INTRA:         -10.065
REMARK INTER:                  -8.330
REMARK INTRA:                  -1.736
REMARK UNBOUND:                -1.543
REMARK  Name = ABC
REMARK  9 active torsions:
REMARK  status: ('A' for Active; 'I' for Inactive)
REMARK    1  A    between atoms: O_5  and  C_37
REMARK    2  A    between atoms: N_8  and  C_21
REMARK    3  A    between atoms: C_12  and  C_17
REMARK    4  A    between atoms: C_19  and  C_26
REMARK    5  A    between atoms: C_24  and  C_25
REMARK    6  A    between atoms: C_25  and  C_30
REMARK    7  A    between atoms: C_25  and  C_31
REMARK    8  A    between atoms: C_28  and  C_34
REMARK    9  A    between atoms: C_29  and  C_33
REMARK                            x       y       z     vdW  Elec       q    Type
REMARK                         _______ _______ _______ _____ _____    ______ ____
ROOT
ATOM      1  F   UNL     1     -11.762   6.524   4.993  0.00  0.00    -0.203 F 
ATOM      2  O   UNL     1      -3.977   4.462   3.848  0.00  0.00    -0.271 OA
ATOM      3  O   UNL     1      -9.667   2.420  10.989  0.00  0.00    -0.244 OA
ATOM      4  N   UNL     1      -7.906   3.677   6.857  0.00  0.00    -0.309 N 
ATOM      5  N   UNL     1      -5.919   3.637   4.851  0.00  0.00    -0.295 N 
ATOM      6  N   UNL     1     -10.970   3.805   9.722  0.00  0.00    -0.242 N 
ATOM      7  N   UNL     1      -8.857   3.053   8.979  0.00  0.00    -0.177 NA
ATOM      8  N   UNL     1     -12.289   5.199   8.332  0.00  0.00    -0.225 NA
ATOM      9  C   UNL     1      -7.585   2.392   6.217  0.00  0.00    +0.089 C 
ATOM     10  C   UNL     1      -6.161   2.407   5.621  0.00  0.00    +0.130 C 
ATOM     11  C   UNL     1      -6.982   4.813   6.770  0.00  0.00    +0.126 C 
ATOM     12  C   UNL     1      -6.406   4.931   5.356  0.00  0.00    +0.127 C 
ATOM     13  C   UNL     1      -8.977   3.733   7.811  0.00  0.00    +0.138 A 
ATOM     14  C   UNL     1      -8.634   2.076   5.146  0.00  0.00    +0.029 C 
ATOM     15  C   UNL     1     -10.143   4.471   7.559  0.00  0.00    +0.061 A 
ATOM     16  C   UNL     1      -4.925   3.632   3.808  0.00  0.00    +0.239 C 
ATOM     17  C   UNL     1     -11.143   4.498   8.553  0.00  0.00    +0.153 A 
ATOM     18  C   UNL     1      -9.829   3.076   9.924  0.00  0.00    +0.356 A 
ATOM     19  C   UNL     1     -10.364   5.159   6.354  0.00  0.00    +0.055 A 
ATOM     20  C   UNL     1     -11.556   5.858   6.158  0.00  0.00    +0.150 A 
ATOM     21  C   UNL     1     -12.526   5.864   7.171  0.00  0.00    +0.115 A 
ENDROOT
BRANCH  21  23
ATOM     22  F   UNL     1     -14.695   4.733   5.780  0.00  0.00    -0.205 F 
ATOM     23  C   UNL     1     -13.796   6.590   7.006  0.00  0.00    +0.080 A 
ATOM     24  C   UNL     1     -13.976   7.894   7.526  0.00  0.00    +0.129 A 
ATOM     25  C   UNL     1     -14.847   5.979   6.298  0.00  0.00    +0.136 A 
ATOM     26  C   UNL     1     -15.207   8.541   7.362  0.00  0.00    +0.046 A 
ATOM     27  C   UNL     1     -16.068   6.639   6.139  0.00  0.00    +0.039 A 
ATOM     28  C   UNL     1     -16.250   7.917   6.675  0.00  0.00    +0.006 A 
BRANCH  24  29
ATOM     29  O   UNL     1     -12.949   8.576   8.186  0.00  0.00    -0.506 OA
ATOM     30  H   UNL     1     -13.037   9.535   8.495  0.00  0.00    +0.292 HD
ENDBRANCH  24  29
ENDBRANCH  21  23
BRANCH   6  32
ATOM     31  N   UNL     1     -13.026   4.815  12.653  0.00  0.00    -0.258 NA
ATOM     32  C   UNL     1     -12.005   3.821  10.726  0.00  0.00    +0.077 A 
ATOM     33  C   UNL     1     -12.047   4.842  11.706  0.00  0.00    +0.068 A 
ATOM     34  C   UNL     1     -12.974   2.796  10.759  0.00  0.00    -0.023 A 
ATOM     35  C   UNL     1     -13.967   2.822  11.747  0.00  0.00    +0.025 A 
ATOM     36  C   UNL     1     -12.959   1.690   9.741  0.00  0.00    +0.046 C 
ATOM     37  C   UNL     1     -13.973   3.844  12.692  0.00  0.00    +0.111 A 
BRANCH  33  38
ATOM     38  C   UNL     1     -11.024   5.962  11.749  0.00  0.00    +0.034 C 
ATOM     39  C   UNL     1     -11.719   7.311  11.958  0.00  0.00    +0.014 C 
ATOM     40  C   UNL     1      -9.995   5.700  12.855  0.00  0.00    +0.014 C 
ENDBRANCH  33  38
ENDBRANCH   6  32
BRANCH  16  41
ATOM     41  C   UNL     1      -4.969   2.678   2.684  0.00  0.00    +0.060 C 
ATOM     42  C   UNL     1      -6.006   2.591   1.856  0.00  0.00    +0.013 C 
ENDBRANCH  16  41
TORSDOF 5
ENDMDL
MODEL 17
REMARK VINA RESULT:    -6.708     26.734     29.664
REMARK INTER + INTRA:         -10.016
REMARK INTER:                  -8.333
REMARK INTRA:                  -1.683
REMARK UNBOUND:                -1.543
REMARK  Name = ABC
REMARK  9 active torsions:
REMARK  status: ('A' for Active; 'I' for Inactive)
REMARK    1  A    between atoms: O_5  and  C_37
REMARK    2  A    between atoms: N_8  and  C_21
REMARK    3  A    between atoms: C_12  and  C_17
REMARK    4  A    between atoms: C_19  and  C_26
REMARK    5  A    between atoms: C_24  and  C_25
REMARK    6  A    between atoms: C_25  and  C_30
REMARK    7  A    between atoms: C_25  and  C_31
REMARK    8  A    between atoms: C_28  and  C_34
REMARK    9  A    between atoms: C_29  and  C_33
REMARK                            x       y       z     vdW  Elec       q    Type
REMARK                         _______ _______ _______ _____ _____    ______ ____
ROOT
ATOM      1  F   UNL     1      16.127  -3.478  19.322  0.00  0.00    -0.203 F 
ATOM      2  O   UNL     1      14.838   4.379  17.659  0.00  0.00    -0.271 OA
ATOM      3  O   UNL     1      10.501  -1.171  23.817  0.00  0.00    -0.244 OA
ATOM      4  N   UNL     1      13.525   0.704  20.800  0.00  0.00    -0.309 N 
ATOM      5  N   UNL     1      14.706   2.884  19.448  0.00  0.00    -0.295 N 
ATOM      6  N   UNL     1      11.904  -2.633  22.762  0.00  0.00    -0.242 N 
ATOM      7  N   UNL     1      11.985  -0.309  22.350  0.00  0.00    -0.177 NA
ATOM      8  N   UNL     1      13.425  -4.086  21.669  0.00  0.00    -0.225 NA
ATOM      9  C   UNL     1      14.209   1.734  21.597  0.00  0.00    +0.089 C 
ATOM     10  C   UNL     1      14.269   3.077  20.839  0.00  0.00    +0.130 C 
ATOM     11  C   UNL     1      13.110   0.974  19.420  0.00  0.00    +0.126 C 
ATOM     12  C   UNL     1      14.202   1.740  18.669  0.00  0.00    +0.127 C 
ATOM     13  C   UNL     1      13.001  -0.456  21.462  0.00  0.00    +0.138 A 
ATOM     14  C   UNL     1      15.611   1.243  21.975  0.00  0.00    +0.029 C 
ATOM     15  C   UNL     1      13.518  -1.737  21.214  0.00  0.00    +0.061 A 
ATOM     16  C   UNL     1      15.331   3.975  18.746  0.00  0.00    +0.239 C 
ATOM     17  C   UNL     1      12.936  -2.833  21.885  0.00  0.00    +0.153 A 
ATOM     18  C   UNL     1      11.440  -1.368  22.998  0.00  0.00    +0.356 A 
ATOM     19  C   UNL     1      14.601  -1.966  20.349  0.00  0.00    +0.055 A 
ATOM     20  C   UNL     1      15.082  -3.262  20.161  0.00  0.00    +0.150 A 
ATOM     21  C   UNL     1      14.476  -4.328  20.843  0.00  0.00    +0.115 A 
ENDROOT
BRANCH  21  23
ATOM     22  F   UNL     1      17.055  -5.107  21.658  0.00  0.00    -0.205 F 
ATOM     23  C   UNL     1      14.951  -5.711  20.673  0.00  0.00    +0.080 A 
ATOM     24  C   UNL     1      14.137  -6.705  20.078  0.00  0.00    +0.129 A 
ATOM     25  C   UNL     1      16.251  -6.046  21.094  0.00  0.00    +0.136 A 
ATOM     26  C   UNL     1      14.622  -8.012  19.951  0.00  0.00    +0.046 A 
ATOM     27  C   UNL     1      16.721  -7.354  20.957  0.00  0.00    +0.039 A 
ATOM     28  C   UNL     1      15.906  -8.337  20.391  0.00  0.00    +0.006 A 
BRANCH  24  29
ATOM     29  O   UNL     1      12.861  -6.418  19.585  0.00  0.00    -0.506 OA
ATOM     30  H   UNL     1      12.295  -5.655  19.934  0.00  0.00    +0.292 HD
ENDBRANCH  24  29
ENDBRANCH  21  23
BRANCH   6  32
ATOM     31  N   UNL     1       9.757  -5.564  23.562  0.00  0.00    -0.258 NA
ATOM     32  C   UNL     1      11.327  -3.756  23.459  0.00  0.00    +0.077 A 
ATOM     33  C   UNL     1      10.294  -4.522  22.867  0.00  0.00    +0.068 A 
ATOM     34  C   UNL     1      11.770  -4.086  24.757  0.00  0.00    -0.023 A 
ATOM     35  C   UNL     1      11.192  -5.174  25.424  0.00  0.00    +0.025 A 
ATOM     36  C   UNL     1      12.859  -3.292  25.424  0.00  0.00    +0.046 C 
ATOM     37  C   UNL     1      10.179  -5.903  24.807  0.00  0.00    +0.111 A 
BRANCH  33  38
ATOM     38  C   UNL     1       9.749  -4.212  21.486  0.00  0.00    +0.034 C 
ATOM     39  C   UNL     1       9.426  -5.508  20.736  0.00  0.00    +0.014 C 
ATOM     40  C   UNL     1       8.509  -3.318  21.592  0.00  0.00    +0.014 C 
ENDBRANCH  33  38
ENDBRANCH   6  32
BRANCH  16  41
ATOM     41  C   UNL     1      16.537   4.652  19.258  0.00  0.00    +0.060 C 
ATOM     42  C   UNL     1      17.725   4.058  19.313  0.00  0.00    +0.013 C 
ENDBRANCH  16  41
TORSDOF 5
ENDMDL
MODEL 18
REMARK VINA RESULT:    -6.698     17.255     21.910
REMARK INTER + INTRA:         -10.004
REMARK INTER:                  -8.346
REMARK INTRA:                  -1.657
REMARK UNBOUND:                -1.543
REMARK  Name = ABC
REMARK  9 active torsions:
REMARK  status: ('A' for Active; 'I' for Inactive)
REMARK    1  A    between atoms: O_5  and  C_37
REMARK    2  A    between atoms: N_8  and  C_21
REMARK    3  A    between atoms: C_12  and  C_17
REMARK    4  A    between atoms: C_19  and  C_26
REMARK    5  A    between atoms: C_24  and  C_25
REMARK    6  A    between atoms: C_25  and  C_30
REMARK    7  A    between atoms: C_25  and  C_31
REMARK    8  A    between atoms: C_28  and  C_34
REMARK    9  A    between atoms: C_29  and  C_33
REMARK                            x       y       z     vdW  Elec       q    Type
REMARK                         _______ _______ _______ _____ _____    ______ ____
ROOT
ATOM      1  F   UNL     1      -7.036   4.636   6.990  0.00  0.00    -0.203 F 
ATOM      2  O   UNL     1     -12.198   7.896  12.365  0.00  0.00    -0.271 OA
ATOM      3  O   UNL     1     -14.023   3.247   4.453  0.00  0.00    -0.244 OA
ATOM      4  N   UNL     1     -12.003   5.025   8.263  0.00  0.00    -0.309 N 
ATOM      5  N   UNL     1     -12.063   6.104  10.872  0.00  0.00    -0.295 N 
ATOM      6  N   UNL     1     -11.743   3.394   4.405  0.00  0.00    -0.242 N 
ATOM      7  N   UNL     1     -13.000   4.099   6.277  0.00  0.00    -0.177 NA
ATOM      8  N   UNL     1      -9.377   3.529   4.446  0.00  0.00    -0.225 NA
ATOM      9  C   UNL     1     -12.535   4.192   9.353  0.00  0.00    +0.089 C 
ATOM     10  C   UNL     1     -13.040   5.062  10.524  0.00  0.00    +0.130 C 
ATOM     11  C   UNL     1     -11.883   6.478   8.418  0.00  0.00    +0.126 C 
ATOM     12  C   UNL     1     -11.348   6.830   9.809  0.00  0.00    +0.127 C 
ATOM     13  C   UNL     1     -11.879   4.460   6.950  0.00  0.00    +0.138 A 
ATOM     14  C   UNL     1     -11.459   3.204   9.815  0.00  0.00    +0.029 C 
ATOM     15  C   UNL     1     -10.624   4.271   6.350  0.00  0.00    +0.061 A 
ATOM     16  C   UNL     1     -12.062   6.653  12.204  0.00  0.00    +0.239 C 
ATOM     17  C   UNL     1     -10.582   3.732   5.048  0.00  0.00    +0.153 A 
ATOM     18  C   UNL     1     -12.948   3.571   5.029  0.00  0.00    +0.356 A 
ATOM     19  C   UNL     1      -9.416   4.572   7.002  0.00  0.00    +0.055 A 
ATOM     20  C   UNL     1      -8.200   4.340   6.357  0.00  0.00    +0.150 A 
ATOM     21  C   UNL     1      -8.198   3.806   5.061  0.00  0.00    +0.115 A 
ENDROOT
BRANCH  21  23
ATOM     22  F   UNL     1      -6.311   1.953   6.026  0.00  0.00    -0.205 F 
ATOM     23  C   UNL     1      -6.937   3.547   4.344  0.00  0.00    +0.080 A 
ATOM     24  C   UNL     1      -6.613   4.231   3.148  0.00  0.00    +0.129 A 
ATOM     25  C   UNL     1      -6.028   2.614   4.874  0.00  0.00    +0.136 A 
ATOM     26  C   UNL     1      -5.412   3.941   2.489  0.00  0.00    +0.046 A 
ATOM     27  C   UNL     1      -4.831   2.339   4.206  0.00  0.00    +0.039 A 
ATOM     28  C   UNL     1      -4.526   2.998   3.013  0.00  0.00    +0.006 A 
BRANCH  24  29
ATOM     29  O   UNL     1      -7.449   5.212   2.607  0.00  0.00    -0.506 OA
ATOM     30  H   UNL     1      -7.909   5.914   3.171  0.00  0.00    +0.292 HD
ENDBRANCH  24  29
ENDBRANCH  21  23
BRANCH   6  32
ATOM     31  N   UNL     1     -11.493   0.925   1.635  0.00  0.00    -0.258 NA
ATOM     32  C   UNL     1     -11.692   2.825   3.081  0.00  0.00    +0.077 A 
ATOM     33  C   UNL     1     -11.558   1.427   2.899  0.00  0.00    +0.068 A 
ATOM     34  C   UNL     1     -11.746   3.663   1.948  0.00  0.00    -0.023 A 
ATOM     35  C   UNL     1     -11.686   3.095   0.669  0.00  0.00    +0.025 A 
ATOM     36  C   UNL     1     -11.879   5.153   2.099  0.00  0.00    +0.046 C 
ATOM     37  C   UNL     1     -11.556   1.715   0.533  0.00  0.00    +0.111 A 
BRANCH  33  38
ATOM     38  C   UNL     1     -11.468   0.466   4.069  0.00  0.00    +0.034 C 
ATOM     39  C   UNL     1     -12.411  -0.724   3.857  0.00  0.00    +0.014 C 
ATOM     40  C   UNL     1     -10.023  -0.008   4.258  0.00  0.00    +0.014 C 
ENDBRANCH  33  38
ENDBRANCH   6  32
BRANCH  16  41
ATOM     41  C   UNL     1     -11.911   5.808  13.403  0.00  0.00    +0.060 C 
ATOM     42  C   UNL     1     -12.890   5.635  14.287  0.00  0.00    +0.013 C 
ENDBRANCH  16  41
TORSDOF 5
ENDMDL
MODEL 19
REMARK VINA RESULT:    -6.567      3.222      5.181
REMARK INTER + INTRA:          -9.838
REMARK INTER:                  -8.094
REMARK INTRA:                  -1.743
REMARK UNBOUND:                -1.543
REMARK  Name = ABC
REMARK  9 active torsions:
REMARK  status: ('A' for Active; 'I' for Inactive)
REMARK    1  A    between atoms: O_5  and  C_37
REMARK    2  A    between atoms: N_8  and  C_21
REMARK    3  A    between atoms: C_12  and  C_17
REMARK    4  A    between atoms: C_19  and  C_26
REMARK    5  A    between atoms: C_24  and  C_25
REMARK    6  A    between atoms: C_25  and  C_30
REMARK    7  A    between atoms: C_25  and  C_31
REMARK    8  A    between atoms: C_28  and  C_34
REMARK    9  A    between atoms: C_29  and  C_33
REMARK                            x       y       z     vdW  Elec       q    Type
REMARK                         _______ _______ _______ _____ _____    ______ ____
ROOT
ATOM      1  F   UNL     1      -3.491  -9.606  -3.343  0.00  0.00    -0.203 F 
ATOM      2  O   UNL     1      -4.237 -15.744  -8.628  0.00  0.00    -0.271 OA
ATOM      3  O   UNL     1       2.137 -14.447  -1.903  0.00  0.00    -0.244 OA
ATOM      4  N   UNL     1      -1.666 -14.247  -4.596  0.00  0.00    -0.309 N 
ATOM      5  N   UNL     1      -3.497 -15.337  -6.451  0.00  0.00    -0.295 N 
ATOM      6  N   UNL     1       0.938 -12.504  -1.806  0.00  0.00    -0.242 N 
ATOM      7  N   UNL     1       0.285 -14.306  -3.187  0.00  0.00    -0.177 NA
ATOM      8  N   UNL     1      -0.383 -10.538  -1.716  0.00  0.00    -0.225 NA
ATOM      9  C   UNL     1      -2.424 -15.448  -4.209  0.00  0.00    +0.089 C 
ATOM     10  C   UNL     1      -2.896 -16.233  -5.451  0.00  0.00    +0.130 C 
ATOM     11  C   UNL     1      -1.546 -13.856  -6.005  0.00  0.00    +0.126 C 
ATOM     12  C   UNL     1      -2.886 -14.026  -6.727  0.00  0.00    +0.127 C 
ATOM     13  C   UNL     1      -0.802 -13.627  -3.634  0.00  0.00    +0.138 A 
ATOM     14  C   UNL     1      -3.605 -15.045  -3.321  0.00  0.00    +0.029 C 
ATOM     15  C   UNL     1      -1.059 -12.338  -3.143  0.00  0.00    +0.061 A 
ATOM     16  C   UNL     1      -4.449 -15.867  -7.392  0.00  0.00    +0.239 C 
ATOM     17  C   UNL     1      -0.152 -11.784  -2.216  0.00  0.00    +0.153 A 
ATOM     18  C   UNL     1       1.146 -13.768  -2.287  0.00  0.00    +0.356 A 
ATOM     19  C   UNL     1      -2.190 -11.593  -3.517  0.00  0.00    +0.055 A 
ATOM     20  C   UNL     1      -2.399 -10.323  -2.976  0.00  0.00    +0.150 A 
ATOM     21  C   UNL     1      -1.474  -9.804  -2.059  0.00  0.00    +0.115 A 
ENDROOT
BRANCH  21  23
ATOM     22  F   UNL     1      -3.599  -9.255  -0.296  0.00  0.00    -0.205 F 
ATOM     23  C   UNL     1      -1.655  -8.469  -1.465  0.00  0.00    +0.080 A 
ATOM     24  C   UNL     1      -0.777  -7.400  -1.767  0.00  0.00    +0.129 A 
ATOM     25  C   UNL     1      -2.737  -8.248  -0.593  0.00  0.00    +0.136 A 
ATOM     26  C   UNL     1      -0.977  -6.151  -1.165  0.00  0.00    +0.046 A 
ATOM     27  C   UNL     1      -2.923  -6.995  -0.005  0.00  0.00    +0.039 A 
ATOM     28  C   UNL     1      -2.042  -5.949  -0.286  0.00  0.00    +0.006 A 
BRANCH  24  29
ATOM     29  O   UNL     1       0.278  -7.542  -2.672  0.00  0.00    -0.506 OA
ATOM     30  H   UNL     1       0.654  -6.768  -3.204  0.00  0.00    +0.292 HD
ENDBRANCH  24  29
ENDBRANCH  21  23
BRANCH   6  32
ATOM     31  N   UNL     1       3.787 -10.625  -0.325  0.00  0.00    -0.258 NA
ATOM     32  C   UNL     1       1.850 -11.939  -0.842  0.00  0.00    +0.077 A 
ATOM     33  C   UNL     1       2.931 -11.126  -1.260  0.00  0.00    +0.068 A 
ATOM     34  C   UNL     1       1.691 -12.218   0.531  0.00  0.00    -0.023 A 
ATOM     35  C   UNL     1       2.592 -11.669   1.453  0.00  0.00    +0.025 A 
ATOM     36  C   UNL     1       0.561 -13.084   1.014  0.00  0.00    +0.046 C 
ATOM     37  C   UNL     1       3.641 -10.873   1.001  0.00  0.00    +0.111 A 
BRANCH  33  38
ATOM     38  C   UNL     1       3.181 -10.803  -2.721  0.00  0.00    +0.034 C 
ATOM     39  C   UNL     1       3.608  -9.340  -2.880  0.00  0.00    +0.014 C 
ATOM     40  C   UNL     1       4.240 -11.748  -3.301  0.00  0.00    +0.014 C 
ENDBRANCH  33  38
ENDBRANCH   6  32
BRANCH  16  41
ATOM     41  C   UNL     1      -5.677 -16.563  -6.962  0.00  0.00    +0.060 C 
ATOM     42  C   UNL     1      -6.554 -16.020  -6.122  0.00  0.00    +0.013 C 
ENDBRANCH  16  41
TORSDOF 5
ENDMDL
MODEL 20
REMARK VINA RESULT:    -6.490      2.875      5.352
REMARK INTER + INTRA:          -9.740
REMARK INTER:                  -7.943
REMARK INTRA:                  -1.797
REMARK UNBOUND:                -1.543
REMARK  Name = ABC
REMARK  9 active torsions:
REMARK  status: ('A' for Active; 'I' for Inactive)
REMARK    1  A    between atoms: O_5  and  C_37
REMARK    2  A    between atoms: N_8  and  C_21
REMARK    3  A    between atoms: C_12  and  C_17
REMARK    4  A    between atoms: C_19  and  C_26
REMARK    5  A    between atoms: C_24  and  C_25
REMARK    6  A    between atoms: C_25  and  C_30
REMARK    7  A    between atoms: C_25  and  C_31
REMARK    8  A    between atoms: C_28  and  C_34
REMARK    9  A    between atoms: C_29  and  C_33
REMARK                            x       y       z     vdW  Elec       q    Type
REMARK                         _______ _______ _______ _____ _____    ______ ____
ROOT
ATOM      1  F   UNL     1      -3.636 -10.705  -3.115  0.00  0.00    -0.203 F 
ATOM      2  O   UNL     1      -2.444 -14.155 -10.384  0.00  0.00    -0.271 OA
ATOM      3  O   UNL     1       3.359 -13.577  -3.068  0.00  0.00    -0.244 OA
ATOM      4  N   UNL     1      -0.385 -13.602  -5.850  0.00  0.00    -0.309 N 
ATOM      5  N   UNL     1      -1.803 -14.414  -8.153  0.00  0.00    -0.295 N 
ATOM      6  N   UNL     1       1.573 -12.340  -2.359  0.00  0.00    -0.242 N 
ATOM      7  N   UNL     1       1.522 -13.562  -4.381  0.00  0.00    -0.177 NA
ATOM      8  N   UNL     1      -0.335 -11.120  -1.662  0.00  0.00    -0.225 NA
ATOM      9  C   UNL     1      -0.671 -15.034  -6.027  0.00  0.00    +0.089 C 
ATOM     10  C   UNL     1      -0.894 -15.378  -7.515  0.00  0.00    +0.130 C 
ATOM     11  C   UNL     1      -0.461 -12.675  -6.984  0.00  0.00    +0.126 C 
ATOM     12  C   UNL     1      -1.689 -12.978  -7.847  0.00  0.00    +0.127 C 
ATOM     13  C   UNL     1       0.252 -13.161  -4.642  0.00  0.00    +0.138 A 
ATOM     14  C   UNL     1      -1.882 -15.425  -5.175  0.00  0.00    +0.029 C 
ATOM     15  C   UNL     1      -0.410 -12.331  -3.726  0.00  0.00    +0.061 A 
ATOM     16  C   UNL     1      -2.553 -14.815  -9.316  0.00  0.00    +0.239 C 
ATOM     17  C   UNL     1       0.288 -11.919  -2.572  0.00  0.00    +0.153 A 
ATOM     18  C   UNL     1       2.181 -13.169  -3.262  0.00  0.00    +0.356 A 
ATOM     19  C   UNL     1      -1.742 -11.915  -3.900  0.00  0.00    +0.055 A 
ATOM     20  C   UNL     1      -2.351 -11.105  -2.940  0.00  0.00    +0.150 A 
ATOM     21  C   UNL     1      -1.624 -10.714  -1.807  0.00  0.00    +0.115 A 
ENDROOT
BRANCH  21  23
ATOM     22  F   UNL     1      -2.048  -7.965  -2.235  0.00  0.00    -0.205 F 
ATOM     23  C   UNL     1      -2.227  -9.859  -0.771  0.00  0.00    +0.080 A 
ATOM     24  C   UNL     1      -2.605 -10.379   0.490  0.00  0.00    +0.129 A 
ATOM     25  C   UNL     1      -2.413  -8.490  -1.036  0.00  0.00    +0.136 A 
ATOM     26  C   UNL     1      -3.192  -9.533   1.439  0.00  0.00    +0.046 A 
ATOM     27  C   UNL     1      -2.996  -7.659  -0.077  0.00  0.00    +0.039 A 
ATOM     28  C   UNL     1      -3.390  -8.181   1.158  0.00  0.00    +0.006 A 
BRANCH  24  29
ATOM     29  O   UNL     1      -2.390 -11.717   0.833  0.00  0.00    -0.506 OA
ATOM     30  H   UNL     1      -3.076 -12.276   1.323  0.00  0.00    +0.292 HD
ENDBRANCH  24  29
ENDBRANCH  21  23
BRANCH   6  32
ATOM     31  N   UNL     1       3.724 -10.407  -0.020  0.00  0.00    -0.258 NA
ATOM     32  C   UNL     1       2.275 -11.932  -1.167  0.00  0.00    +0.077 A 
ATOM     33  C   UNL     1       3.058 -10.752  -1.157  0.00  0.00    +0.068 A 
ATOM     34  C   UNL     1       2.210 -12.724  -0.002  0.00  0.00    -0.023 A 
ATOM     35  C   UNL     1       2.905 -12.317   1.144  0.00  0.00    +0.025 A 
ATOM     36  C   UNL     1       1.396 -13.988   0.025  0.00  0.00    +0.046 C 
ATOM     37  C   UNL     1       3.663 -11.150   1.114  0.00  0.00    +0.111 A 
BRANCH  33  38
ATOM     38  C   UNL     1       3.196  -9.864  -2.379  0.00  0.00    +0.034 C 
ATOM     39  C   UNL     1       3.167  -8.387  -1.972  0.00  0.00    +0.014 C 
ATOM     40  C   UNL     1       4.486 -10.197  -3.136  0.00  0.00    +0.014 C 
ENDBRANCH  33  38
ENDBRANCH   6  32
BRANCH  16  41
ATOM     41  C   UNL     1      -3.451 -15.985  -9.308  0.00  0.00    +0.060 C 
ATOM     42  C   UNL     1      -4.449 -16.119  -8.439  0.00  0.00    +0.013 C 
ENDBRANCH  16  41
TORSDOF 5
ENDMDL
