ABC  

 71 75  0     1  0  0  0  0  0999 V2000
    3.7320   -0.2258    0.0000 F   0  0  0  0  0  0  0  0  0  0  0  0
    4.6038   -3.7708    0.0000 F   0  0  0  0  0  0  0  0  0  0  0  0
    6.3961    4.2500    0.0000 O   0  0  0  0  0  0  0  0  0  0  0  0
    8.9942   -2.2500    0.0000 O   0  0  0  0  0  0  0  0  0  0  0  0
    2.8602   -0.7775    0.0000 O   0  0  0  0  0  0  0  0  0  0  0  0
    7.2622    0.7500    0.0000 N   0  0  3  0  0  0  0  0  0  0  0  0
    7.2622    2.7500    0.0000 N   0  0  0  0  0  0  0  0  0  0  0  0
    7.2622   -2.2500    0.0000 N   0  0  0  0  0  0  0  0  0  0  0  0
    8.1282   -0.7500    0.0000 N   0  0  0  0  0  0  0  0  0  0  0  0
    5.5022   -2.2847    0.0000 N   0  0  0  0  0  0  0  0  0  0  0  0
    6.3961   -4.7500    0.0000 N   0  0  0  0  0  0  0  0  0  0  0  0
    8.1282    1.2500    0.0000 C   0  0  2  0  0  0  0  0  0  0  0  0
    8.1282    2.2500    0.0000 C   0  0  0  0  0  0  0  0  0  0  0  0
    6.3961    1.2500    0.0000 C   0  0  0  0  0  0  0  0  0  0  0  0
    6.3961    2.2500    0.0000 C   0  0  0  0  0  0  0  0  0  0  0  0
    7.2622   -0.2500    0.0000 C   0  0  0  0  0  0  0  0  0  0  0  0
    8.9942    0.7500    0.0000 C   0  0  0  0  0  0  0  0  0  0  0  0
    6.3961   -0.7500    0.0000 C   0  0  0  0  0  0  0  0  0  0  0  0
    7.2622    3.7500    0.0000 C   0  0  0  0  0  0  0  0  0  0  0  0
    6.3961   -1.7500    0.0000 C   0  0  0  0  0  0  0  0  0  0  0  0
    7.2622   -3.2500    0.0000 C   0  0  0  0  0  0  0  0  0  0  0  0
    8.1282   -1.7500    0.0000 C   0  0  0  0  0  0  0  0  0  0  0  0
    5.5022   -0.2153    0.0000 C   0  0  0  0  0  0  0  0  0  0  0  0
    6.3961   -3.7500    0.0000 C   0  0  0  0  0  0  0  0  0  0  0  0
    5.4113   -3.9236    0.0000 C   0  0  0  0  0  0  0  0  0  0  0  0
    8.1282    4.2500    0.0000 C   0  0  0  0  0  0  0  0  0  0  0  0
    4.5961   -0.7292    0.0000 C   0  0  0  0  0  0  0  0  0  0  0  0
    8.1282   -3.7500    0.0000 C   0  0  0  0  0  0  0  0  0  0  0  0
    4.5961   -1.7708    0.0000 C   0  0  0  0  0  0  0  0  0  0  0  0
    5.0692   -4.8633    0.0000 C   0  0  0  0  0  0  0  0  0  0  0  0
    4.7685   -3.1576    0.0000 C   0  0  0  0  0  0  0  0  0  0  0  0
    8.1282   -4.7500    0.0000 C   0  0  0  0  0  0  0  0  0  0  0  0
    3.7320   -2.2742    0.0000 C   0  0  0  0  0  0  0  0  0  0  0  0
    8.9942   -3.2500    0.0000 C   0  0  0  0  0  0  0  0  0  0  0  0
    7.2622   -5.2500    0.0000 C   0  0  0  0  0  0  0  0  0  0  0  0
    8.1282    5.2500    0.0000 C   0  0  0  0  0  0  0  0  0  0  0  0
    2.8641   -1.7775    0.0000 C   0  0  0  0  0  0  0  0  0  0  0  0
    3.7359   -3.2741    0.0000 C   0  0  0  0  0  0  0  0  0  0  0  0
    2.0000   -2.2808    0.0000 C   0  0  0  0  0  0  0  0  0  0  0  0
    2.8718   -3.7775    0.0000 C   0  0  0  0  0  0  0  0  0  0  0  0
    2.0038   -3.2808    0.0000 C   0  0  0  0  0  0  0  0  0  0  0  0
    8.1282    0.6300    0.0000 H   0  0  0  0  0  0  0  0  0  0  0  0
    8.7388    2.1423    0.0000 H   0  0  0  0  0  0  0  0  0  0  0  0
    8.3402    2.8326    0.0000 H   0  0  0  0  0  0  0  0  0  0  0  0
    5.7856    1.3577    0.0000 H   0  0  0  0  0  0  0  0  0  0  0  0
    6.1841    0.6674    0.0000 H   0  0  0  0  0  0  0  0  0  0  0  0
    6.1841    2.8326    0.0000 H   0  0  0  0  0  0  0  0  0  0  0  0
    5.7856    2.1423    0.0000 H   0  0  0  0  0  0  0  0  0  0  0  0
    8.6842    0.2131    0.0000 H   0  0  0  0  0  0  0  0  0  0  0  0
    9.5312    0.4400    0.0000 H   0  0  0  0  0  0  0  0  0  0  0  0
    9.3042    1.2869    0.0000 H   0  0  0  0  0  0  0  0  0  0  0  0
    5.5094    0.4046    0.0000 H   0  0  0  0  0  0  0  0  0  0  0  0
    5.8098   -4.3986    0.0000 H   0  0  0  0  0  0  0  0  0  0  0  0
    8.6651    3.9400    0.0000 H   0  0  0  0  0  0  0  0  0  0  0  0
    4.4867   -4.6512    0.0000 H   0  0  0  0  0  0  0  0  0  0  0  0
    4.8571   -5.4459    0.0000 H   0  0  0  0  0  0  0  0  0  0  0  0
    5.6518   -5.0754    0.0000 H   0  0  0  0  0  0  0  0  0  0  0  0
    5.2435   -2.7591    0.0000 H   0  0  0  0  0  0  0  0  0  0  0  0
    4.3700   -2.6827    0.0000 H   0  0  0  0  0  0  0  0  0  0  0  0
    4.2936   -3.5561    0.0000 H   0  0  0  0  0  0  0  0  0  0  0  0
    8.6651   -5.0600    0.0000 H   0  0  0  0  0  0  0  0  0  0  0  0
    9.3042   -3.7869    0.0000 H   0  0  0  0  0  0  0  0  0  0  0  0
    9.5312   -2.9400    0.0000 H   0  0  0  0  0  0  0  0  0  0  0  0
    8.6842   -2.7131    0.0000 H   0  0  0  0  0  0  0  0  0  0  0  0
    7.2622   -5.8700    0.0000 H   0  0  0  0  0  0  0  0  0  0  0  0
    8.6651    5.5600    0.0000 H   0  0  0  0  0  0  0  0  0  0  0  0
    7.5912    5.5600    0.0000 H   0  0  0  0  0  0  0  0  0  0  0  0
    1.4619   -1.9729    0.0000 H   0  0  0  0  0  0  0  0  0  0  0  0
    2.8742   -4.3975    0.0000 H   0  0  0  0  0  0  0  0  0  0  0  0
    1.4681   -3.5929    0.0000 H   0  0  0  0  0  0  0  0  0  0  0  0
    2.3221   -0.4696    0.0000 H   0  0  0  0  0  0  0  0  0  0  0  0
  1 27  1  0  0  0  0
  2 38  1  0  0  0  0
  3 19  2  0  0  0  0
  4 22  2  0  0  0  0
  5 37  1  0  0  0  0
  5 71  1  0  0  0  0
  6 12  1  0  0  0  0
  6 14  1  0  0  0  0
  6 16  1  0  0  0  0
  7 13  1  0  0  0  0
  7 15  1  0  0  0  0
  7 19  1  0  0  0  0
  8 20  1  0  0  0  0
  8 21  1  0  0  0  0
  8 22  1  0  0  0  0
  9 16  2  0  0  0  0
  9 22  1  0  0  0  0
 10 20  2  0  0  0  0
 10 29  1  0  0  0  0
 11 24  2  0  0  0  0
 11 35  1  0  0  0  0
 12 13  1  0  0  0  0
 12 17  1  6  0  0  0
 12 42  1  0  0  0  0
 13 43  1  0  0  0  0
 13 44  1  0  0  0  0
 14 15  1  0  0  0  0
 14 45  1  0  0  0  0
 14 46  1  0  0  0  0
 15 47  1  0  0  0  0
 15 48  1  0  0  0  0
 16 18  1  0  0  0  0
 17 49  1  0  0  0  0
 17 50  1  0  0  0  0
 17 51  1  0  0  0  0
 18 20  1  0  0  0  0
 18 23  2  0  0  0  0
 19 26  1  0  0  0  0
 21 24  1  0  0  0  0
 21 28  2  0  0  0  0
 23 27  1  0  0  0  0
 23 52  1  0  0  0  0
 24 25  1  0  0  0  0
 25 30  1  0  0  0  0
 25 31  1  0  0  0  0
 25 53  1  0  0  0  0
 26 36  2  0  0  0  0
 26 54  1  0  0  0  0
 27 29  2  0  0  0  0
 28 32  1  0  0  0  0
 28 34  1  0  0  0  0
 29 33  1  0  0  0  0
 30 55  1  0  0  0  0
 30 56  1  0  0  0  0
 30 57  1  0  0  0  0
 31 58  1  0  0  0  0
 31 59  1  0  0  0  0
 31 60  1  0  0  0  0
 32 35  2  0  0  0  0
 32 61  1  0  0  0  0
 33 37  2  0  0  0  0
 33 38  1  0  0  0  0
 34 62  1  0  0  0  0
 34 63  1  0  0  0  0
 34 64  1  0  0  0  0
 35 65  1  0  0  0  0
 36 66  1  0  0  0  0
 36 67  1  0  0  0  0
 37 39  1  0  0  0  0
 38 40  2  0  0  0  0
 39 41  2  0  0  0  0
 39 68  1  0  0  0  0
 40 41  1  0  0  0  0
 40 69  1  0  0  0  0
 41 70  1  0  0  0  0
M  END
$$$$
